#======================================================================

# CRYSTAL DATA

#----------------------------------------------------------------------

data_VESTA_phase_1


_pd_phase_name                         'C34 H18 Cd2 O10 S4, 2(C3 H7 N O), C2 H'
_cell_length_a                         19.60000
_cell_length_b                         19.60000
_cell_length_c                         20.76000
_cell_angle_alpha                      90
_cell_angle_beta                       90
_cell_angle_gamma                      120
_symmetry_space_group_name_H-M         'P 1'
_symmetry_Int_Tables_number            1

loop_
_symmetry_equiv_pos_as_xyz
   'x, y, z'

loop_
   _atom_site_label
   _atom_site_occupancy
   _atom_site_fract_x
   _atom_site_fract_y
   _atom_site_fract_z
   _atom_site_adp_type
   _atom_site_B_iso_or_equiv
   _atom_site_type_symbol
   Cd1        1.0     0.690380      0.259560      0.088770     Biso  1.000000 Cd
   Cd2        1.0     0.740440      0.430820      0.755437     Biso  1.000000 Cd
   Cd3        1.0     0.569180      0.309620      0.422103     Biso  1.000000 Cd
   Cd4        1.0     0.309620      0.740440      0.588770     Biso  1.000000 Cd
   Cd5        1.0     0.259560      0.569180      0.255437     Biso  1.000000 Cd
   Cd6        1.0     0.430820      0.690380      0.922103     Biso  1.000000 Cd
   Cd7        1.0     0.726920      0.345050      0.931490     Biso  1.000000 Cd
   Cd8        1.0     0.654950      0.381870      0.598157     Biso  1.000000 Cd
   Cd9        1.0     0.618130      0.273080      0.264823     Biso  1.000000 Cd
   Cd10       1.0     0.273080      0.654950      0.431490     Biso  1.000000 Cd
   Cd11       1.0     0.345050      0.618130      0.098157     Biso  1.000000 Cd
   Cd12       1.0     0.381870      0.726920      0.764823     Biso  1.000000 Cd
   S1         1.0     0.994340      0.056880      0.926640     Biso  1.000000 S
   S2         1.0     0.943120      0.937460      0.593307     Biso  1.000000 S
   S3         1.0     0.062540      0.005660      0.259973     Biso  1.000000 S
   S4         1.0     0.005660      0.943120      0.426640     Biso  1.000000 S
   S5         1.0     0.056880      0.062540      0.093307     Biso  1.000000 S
   S6         1.0     0.937460      0.994340      0.759973     Biso  1.000000 S
   S7         1.0     0.167120      0.145140      0.927680     Biso  1.000000 S
   S8         1.0     0.854860      0.021980      0.594347     Biso  1.000000 S
   S9         1.0     0.978020      0.832880      0.261013     Biso  1.000000 S
   S10        1.0     0.832880      0.854860      0.427680     Biso  1.000000 S
   S11        1.0     0.145140      0.978020      0.094347     Biso  1.000000 S
   S12        1.0     0.021980      0.167120      0.761013     Biso  1.000000 S
   S13        1.0     0.998290      0.895150      0.900310     Biso  1.000000 S
   S14        1.0     0.104850      0.103140      0.566977     Biso  1.000000 S
   S15        1.0     0.896860      0.001710      0.233643     Biso  1.000000 S
   S16        1.0     0.001710      0.104850      0.400310     Biso  1.000000 S
   S17        1.0     0.895150      0.896860      0.066977     Biso  1.000000 S
   S18        1.0     0.103140      0.998290      0.733643     Biso  1.000000 S
   S19        1.0     0.171230      0.984120      0.908380     Biso  1.000000 S
   S20        1.0     0.015880      0.187110      0.575047     Biso  1.000000 S
   S21        1.0     0.812890      0.828770      0.241713     Biso  1.000000 S
   S22        1.0     0.828770      0.015880      0.408380     Biso  1.000000 S
   S23        1.0     0.984120      0.812890      0.075047     Biso  1.000000 S
   S24        1.0     0.187110      0.171230      0.741713     Biso  1.000000 S
   O1         1.0     0.612600      0.345300      0.910100     Biso  1.000000 O
   O2         1.0     0.654700      0.267300      0.576767     Biso  1.000000 O
   O3         1.0     0.732700      0.387400      0.243433     Biso  1.000000 O
   O4         1.0     0.387400      0.654700      0.410100     Biso  1.000000 O
   O5         1.0     0.345300      0.732700      0.076767     Biso  1.000000 O
   O6         1.0     0.267300      0.612600      0.743433     Biso  1.000000 O
   O7         1.0     0.814500      0.309200      0.966800     Biso  1.000000 O
   O8         1.0     0.690800      0.505300      0.633467     Biso  1.000000 O
   O9         1.0     0.494700      0.185500      0.300133     Biso  1.000000 O
   O10        1.0     0.185500      0.690800      0.466800     Biso  1.000000 O
   O11        1.0     0.309200      0.494700      0.133467     Biso  1.000000 O
   O12        1.0     0.505300      0.814500      0.800133     Biso  1.000000 O
   O13        1.0     0.387600      0.564100      0.933000     Biso  1.000000 O
   O14        1.0     0.435900      0.823500      0.599667     Biso  1.000000 O
   O15        1.0     0.176500      0.612400      0.266333     Biso  1.000000 O
   O16        1.0     0.612400      0.435900      0.433000     Biso  1.000000 O
   O17        1.0     0.564100      0.176500      0.099667     Biso  1.000000 O
   O18        1.0     0.823500      0.387600      0.766333     Biso  1.000000 O
   O19        1.0     0.772200      0.226400      0.050800     Biso  1.000000 O
   O20        1.0     0.773600      0.545800      0.717467     Biso  1.000000 O
   O21        1.0     0.454200      0.227800      0.384133     Biso  1.000000 O
   O22        1.0     0.227800      0.773600      0.550800     Biso  1.000000 O
   O23        1.0     0.226400      0.454200      0.217467     Biso  1.000000 O
   O24        1.0     0.545800      0.772200      0.884133     Biso  1.000000 O
   O25        1.0     0.639800      0.219100      0.972300     Biso  1.000000 O
   O26        1.0     0.780900      0.420700      0.638967     Biso  1.000000 O
   O27        1.0     0.579300      0.360200      0.305633     Biso  1.000000 O
   O28        1.0     0.360200      0.780900      0.472300     Biso  1.000000 O
   O29        1.0     0.219100      0.579300      0.138967     Biso  1.000000 O
   O30        1.0     0.420700      0.639800      0.805633     Biso  1.000000 O
   O31        1.0     0.303100      0.576400      0.996000     Biso  1.000000 O
   O32        1.0     0.423600      0.726700      0.662667     Biso  1.000000 O
   O33        1.0     0.273300      0.696900      0.329333     Biso  1.000000 O
   O34        1.0     0.696900      0.423600      0.496000     Biso  1.000000 O
   O35        1.0     0.576400      0.273300      0.162667     Biso  1.000000 O
   O36        1.0     0.726700      0.303100      0.829333     Biso  1.000000 O
   O37        1.0     0.767000      0.483900      0.856200     Biso  1.000000 O
   O38        1.0     0.516100      0.283100      0.522867     Biso  1.000000 O
   O39        1.0     0.716900      0.233000      0.189533     Biso  1.000000 O
   O40        1.0     0.233000      0.516100      0.356200     Biso  1.000000 O
   O41        1.0     0.483900      0.716900      0.022867     Biso  1.000000 O
   O42        1.0     0.283100      0.767000      0.689533     Biso  1.000000 O
   O43        1.0     0.834500      0.463400      0.932200     Biso  1.000000 O
   O44        1.0     0.536600      0.371100      0.598867     Biso  1.000000 O
   O45        1.0     0.628900      0.165500      0.265533     Biso  1.000000 O
   O46        1.0     0.165500      0.536600      0.432200     Biso  1.000000 O
   O47        1.0     0.463400      0.628900      0.098867     Biso  1.000000 O
   O48        1.0     0.371100      0.834500      0.765533     Biso  1.000000 O
   O49        1.0     0.388000      0.777700      0.953000     Biso  1.000000 O
   O50        1.0     0.222300      0.610300      0.619667     Biso  1.000000 O
   O51        1.0     0.389700      0.612000      0.286333     Biso  1.000000 O
   O52        1.0     0.612000      0.222300      0.453000     Biso  1.000000 O
   O53        1.0     0.777700      0.389700      0.119667     Biso  1.000000 O
   O54        1.0     0.610300      0.388000      0.786333     Biso  1.000000 O
   O55        1.0     0.327700      0.702700      0.869700     Biso  1.000000 O
   O56        1.0     0.297300      0.625000      0.536367     Biso  1.000000 O
   O57        1.0     0.375000      0.672300      0.203033     Biso  1.000000 O
   O58        1.0     0.672300      0.297300      0.369700     Biso  1.000000 O
   O59        1.0     0.702700      0.375000      0.036367     Biso  1.000000 O
   O60        1.0     0.625000      0.327700      0.703033     Biso  1.000000 O
   C1         1.0     0.922400      0.142200      0.003100     Biso  1.000000 C
   C2         1.0     0.857800      0.780200      0.669767     Biso  1.000000 C
   C3         1.0     0.219800      0.077600      0.336433     Biso  1.000000 C
   C4         1.0     0.077600      0.857800      0.503100     Biso  1.000000 C
   C5         1.0     0.142200      0.219800      0.169767     Biso  1.000000 C
   C6         1.0     0.780200      0.922400      0.836433     Biso  1.000000 C
   C7         1.0     0.868500      0.166667      0.017000     Biso  1.000000 C
   C8         1.0     0.833333      0.701833      0.683667     Biso  1.000000 C
   C9         1.0     0.298167      0.131500      0.350333     Biso  1.000000 C
   C10        1.0     0.131500      0.833333      0.517000     Biso  1.000000 C
   C11        1.0     0.166667      0.298167      0.183667     Biso  1.000000 C
   C12        1.0     0.701833      0.868500      0.850333     Biso  1.000000 C
   C13        1.0     0.874200      0.232100      0.986400     Biso  1.000000 C
   C14        1.0     0.767900      0.642100      0.653067     Biso  1.000000 C
   C15        1.0     0.357900      0.125800      0.319733     Biso  1.000000 C
   C16        1.0     0.125800      0.767900      0.486400     Biso  1.000000 C
   C17        1.0     0.232100      0.357900      0.153067     Biso  1.000000 C
   C18        1.0     0.642100      0.874200      0.819733     Biso  1.000000 C
   C19        1.0     0.933900      0.272900      0.941600     Biso  1.000000 C
   C20        1.0     0.727100      0.661000      0.608267     Biso  1.000000 C
   C21        1.0     0.339000      0.066100      0.274933     Biso  1.000000 C
   C22        1.0     0.066100      0.727100      0.441600     Biso  1.000000 C
   C23        1.0     0.272900      0.339000      0.108267     Biso  1.000000 C
   C24        1.0     0.661000      0.933900      0.774933     Biso  1.000000 C
   C25        1.0     0.987200      0.249000      0.927600     Biso  1.000000 C
   C26        1.0     0.751000      0.738200      0.594267     Biso  1.000000 C
   C27        1.0     0.261800      0.012800      0.260933     Biso  1.000000 C
   C28        1.0     0.012800      0.751000      0.427600     Biso  1.000000 C
   C29        1.0     0.249000      0.261800      0.094267     Biso  1.000000 C
   C30        1.0     0.738200      0.987200      0.760933     Biso  1.000000 C
   C31        1.0     0.171800      0.283800      0.954400     Biso  1.000000 C
   C32        1.0     0.716200      0.888000      0.621067     Biso  1.000000 C
   C33        1.0     0.112000      0.828200      0.287733     Biso  1.000000 C
   C34        1.0     0.828200      0.716200      0.454400     Biso  1.000000 C
   C35        1.0     0.283800      0.112000      0.121067     Biso  1.000000 C
   C36        1.0     0.888000      0.171800      0.787733     Biso  1.000000 C
   C37        1.0     0.815200      0.258000      0.002500     Biso  1.000000 C
   C38        1.0     0.742000      0.557200      0.669167     Biso  1.000000 C
   C39        1.0     0.442800      0.184800      0.335833     Biso  1.000000 C
   C40        1.0     0.184800      0.742000      0.502500     Biso  1.000000 C
   C41        1.0     0.258000      0.442800      0.169167     Biso  1.000000 C
   C42        1.0     0.557200      0.815200      0.835833     Biso  1.000000 C
   C43        1.0     0.152600      0.329300      0.994400     Biso  1.000000 C
   C44        1.0     0.670700      0.823300      0.661067     Biso  1.000000 C
   C45        1.0     0.176700      0.847400      0.327733     Biso  1.000000 C
   C46        1.0     0.847400      0.670700      0.494400     Biso  1.000000 C
   C47        1.0     0.329300      0.176700      0.161067     Biso  1.000000 C
   C48        1.0     0.823300      0.152600      0.827733     Biso  1.000000 C
   C49        1.0     0.272700      0.447000      0.964800     Biso  1.000000 C
   C50        1.0     0.553000      0.825700      0.631467     Biso  1.000000 C
   C51        1.0     0.174300      0.727300      0.298133     Biso  1.000000 C
   C52        1.0     0.727300      0.553000      0.464800     Biso  1.000000 C
   C53        1.0     0.447000      0.174300      0.131467     Biso  1.000000 C
   C54        1.0     0.825700      0.272700      0.798133     Biso  1.000000 C
   C55        1.0     0.202300      0.409900      0.998800     Biso  1.000000 C
   C56        1.0     0.590100      0.792400      0.665467     Biso  1.000000 C
   C57        1.0     0.207600      0.797700      0.332133     Biso  1.000000 C
   C58        1.0     0.797700      0.590100      0.498800     Biso  1.000000 C
   C59        1.0     0.409900      0.207600      0.165467     Biso  1.000000 C
   C60        1.0     0.792400      0.202300      0.832133     Biso  1.000000 C
   C61        1.0     0.325000      0.534900      0.965500     Biso  1.000000 C
   C62        1.0     0.465100      0.790100      0.632167     Biso  1.000000 C
   C63        1.0     0.209900      0.675000      0.298833     Biso  1.000000 C
   C64        1.0     0.675000      0.465100      0.465500     Biso  1.000000 C
   C65        1.0     0.534900      0.209900      0.132167     Biso  1.000000 C
   C66        1.0     0.790100      0.325000      0.798833     Biso  1.000000 C
   C67        1.0     0.993100      0.753800      0.897800     Biso  1.000000 C
   C68        1.0     0.246200      0.239300      0.564467     Biso  1.000000 C
   C69        1.0     0.760700      0.006900      0.231133     Biso  1.000000 C
   C70        1.0     0.006900      0.246200      0.397800     Biso  1.000000 C
   C71        1.0     0.753800      0.760700      0.064467     Biso  1.000000 C
   C72        1.0     0.239300      0.993100      0.731133     Biso  1.000000 C
   C73        1.0     0.293900      0.402200      0.927200     Biso  1.000000 C
   C74        1.0     0.597800      0.891700      0.593867     Biso  1.000000 C
   C75        1.0     0.108300      0.706100      0.260533     Biso  1.000000 C
   C76        1.0     0.706100      0.597800      0.427200     Biso  1.000000 C
   C77        1.0     0.402200      0.108300      0.093867     Biso  1.000000 C
   C78        1.0     0.891700      0.293900      0.760533     Biso  1.000000 C
   C79        1.0     0.243400      0.321100      0.922000     Biso  1.000000 C
   C80        1.0     0.678900      0.922300      0.588667     Biso  1.000000 C
   C81        1.0     0.077700      0.756600      0.255333     Biso  1.000000 C
   C82        1.0     0.756600      0.678900      0.422000     Biso  1.000000 C
   C83        1.0     0.321100      0.077700      0.088667     Biso  1.000000 C
   C84        1.0     0.922300      0.243400      0.755333     Biso  1.000000 C
   C85        1.0     0.998700      0.704000      0.941900     Biso  1.000000 C
   C86        1.0     0.296000      0.294700      0.608567     Biso  1.000000 C
   C87        1.0     0.705300      0.001300      0.275233     Biso  1.000000 C
   C88        1.0     0.001300      0.296000      0.441900     Biso  1.000000 C
   C89        1.0     0.704000      0.705300      0.108567     Biso  1.000000 C
   C90        1.0     0.294700      0.998700      0.775233     Biso  1.000000 C
   C91        1.0     0.945200      0.623900      0.940000     Biso  1.000000 C
   C92        1.0     0.376100      0.321300      0.606667     Biso  1.000000 C
   C93        1.0     0.678700      0.054800      0.273333     Biso  1.000000 C
   C94        1.0     0.054800      0.376100      0.440000     Biso  1.000000 C
   C95        1.0     0.623900      0.678700      0.106667     Biso  1.000000 C
   C96        1.0     0.321300      0.945200      0.773333     Biso  1.000000 C
   C97        1.0     0.885700      0.593000      0.893600     Biso  1.000000 C
   C98        1.0     0.407000      0.292700      0.560267     Biso  1.000000 C
   C99        1.0     0.707300      0.114300      0.226933     Biso  1.000000 C
   C100       1.0     0.114300      0.407000      0.393600     Biso  1.000000 C
   C101       1.0     0.593000      0.707300      0.060267     Biso  1.000000 C
   C102       1.0     0.292700      0.885700      0.726933     Biso  1.000000 C
   C103       1.0     0.881000      0.643000      0.849300     Biso  1.000000 C
   C104       1.0     0.357000      0.238000      0.515967     Biso  1.000000 C
   C105       1.0     0.762000      0.119000      0.182633     Biso  1.000000 C
   C106       1.0     0.119000      0.357000      0.349300     Biso  1.000000 C
   C107       1.0     0.643000      0.762000      0.015967     Biso  1.000000 C
   C108       1.0     0.238000      0.881000      0.682633     Biso  1.000000 C
   C109       1.0     0.934700      0.723500      0.851100     Biso  1.000000 C
   C110       1.0     0.276500      0.211200      0.517767     Biso  1.000000 C
   C111       1.0     0.788800      0.065300      0.184433     Biso  1.000000 C
   C112       1.0     0.065300      0.276500      0.351100     Biso  1.000000 C
   C113       1.0     0.723500      0.788800      0.017767     Biso  1.000000 C
   C114       1.0     0.211200      0.934700      0.684433     Biso  1.000000 C
   C115       1.0     0.039800      0.157100      0.945900     Biso  1.000000 C
   C116       1.0     0.842900      0.882700      0.612567     Biso  1.000000 C
   C117       1.0     0.117300      0.960200      0.279233     Biso  1.000000 C
   C118       1.0     0.960200      0.842900      0.445900     Biso  1.000000 C
   C119       1.0     0.157100      0.117300      0.112567     Biso  1.000000 C
   C120       1.0     0.882700      0.039800      0.779233     Biso  1.000000 C
   C121       1.0     0.119300      0.198600      0.945200     Biso  1.000000 C
   C122       1.0     0.801400      0.920700      0.611867     Biso  1.000000 C
   C123       1.0     0.079300      0.880700      0.278533     Biso  1.000000 C
   C124       1.0     0.880700      0.801400      0.445200     Biso  1.000000 C
   C125       1.0     0.198600      0.079300      0.111867     Biso  1.000000 C
   C126       1.0     0.920700      0.119300      0.778533     Biso  1.000000 C
   C127       1.0     0.083000      0.987100      0.912300     Biso  1.000000 C
   C128       1.0     0.012900      0.095900      0.578967     Biso  1.000000 C
   C129       1.0     0.904100      0.917000      0.245633     Biso  1.000000 C
   C130       1.0     0.917000      0.012900      0.412300     Biso  1.000000 C
   C131       1.0     0.987100      0.904100      0.078967     Biso  1.000000 C
   C132       1.0     0.095900      0.083000      0.745633     Biso  1.000000 C
   C133       1.0     0.047200      0.840900      0.900700     Biso  1.000000 C
   C134       1.0     0.159100      0.206300      0.567367     Biso  1.000000 C
   C135       1.0     0.793700      0.952800      0.234033     Biso  1.000000 C
   C136       1.0     0.952800      0.159100      0.400700     Biso  1.000000 C
   C137       1.0     0.840900      0.793700      0.067367     Biso  1.000000 C
   C138       1.0     0.206300      0.047200      0.734033     Biso  1.000000 C
   C139       1.0     0.983700      0.184800      0.959100     Biso  1.000000 C
   C140       1.0     0.815200      0.798900      0.625767     Biso  1.000000 C
   C141       1.0     0.201100      0.016300      0.292433     Biso  1.000000 C
   C142       1.0     0.016300      0.815200      0.459100     Biso  1.000000 C
   C143       1.0     0.184800      0.201100      0.125767     Biso  1.000000 C
   C144       1.0     0.798900      0.983700      0.792433     Biso  1.000000 C
   C145       1.0     0.125800      0.880800      0.904800     Biso  1.000000 C
   C146       1.0     0.119200      0.245000      0.571467     Biso  1.000000 C
   C147       1.0     0.755000      0.874200      0.238133     Biso  1.000000 C
   C148       1.0     0.874200      0.119200      0.404800     Biso  1.000000 C
   C149       1.0     0.880800      0.755000      0.071467     Biso  1.000000 C
   C150       1.0     0.245000      0.125800      0.738133     Biso  1.000000 C
   C151       1.0     0.245300      0.880400      0.946400     Biso  1.000000 C
   C152       1.0     0.119600      0.364900      0.613067     Biso  1.000000 C
   C153       1.0     0.635100      0.754700      0.279733     Biso  1.000000 C
   C154       1.0     0.754700      0.119600      0.446400     Biso  1.000000 C
   C155       1.0     0.880400      0.635100      0.113067     Biso  1.000000 C
   C156       1.0     0.364900      0.245300      0.779733     Biso  1.000000 C
   C157       1.0     0.336100      0.754700      0.910300     Biso  1.000000 C
   C158       1.0     0.245300      0.581400      0.576967     Biso  1.000000 C
   C159       1.0     0.418600      0.663900      0.243633     Biso  1.000000 C
   C160       1.0     0.663900      0.245300      0.410300     Biso  1.000000 C
   C161       1.0     0.754700      0.418600      0.076967     Biso  1.000000 C
   C162       1.0     0.581400      0.336100      0.743633     Biso  1.000000 C
   C163       1.0     0.295700      0.850000      0.947800     Biso  1.000000 C
   C164       1.0     0.150000      0.445700      0.614467     Biso  1.000000 C
   C165       1.0     0.554300      0.704300      0.281133     Biso  1.000000 C
   C166       1.0     0.704300      0.150000      0.447800     Biso  1.000000 C
   C167       1.0     0.850000      0.554300      0.114467     Biso  1.000000 C
   C168       1.0     0.445700      0.295700      0.781133     Biso  1.000000 C
   C169       1.0     0.218800      0.757400      0.865300     Biso  1.000000 C
   C170       1.0     0.242600      0.461400      0.531967     Biso  1.000000 C
   C171       1.0     0.538600      0.781200      0.198633     Biso  1.000000 C
   C172       1.0     0.781200      0.242600      0.365300     Biso  1.000000 C
   C173       1.0     0.757400      0.538600      0.031967     Biso  1.000000 C
   C174       1.0     0.461400      0.218800      0.698633     Biso  1.000000 C
   C175       1.0     0.282100      0.787800      0.907700     Biso  1.000000 C
   C176       1.0     0.212200      0.494300      0.574367     Biso  1.000000 C
   C177       1.0     0.505700      0.717900      0.241033     Biso  1.000000 C
   C178       1.0     0.717900      0.212200      0.407700     Biso  1.000000 C
   C179       1.0     0.787800      0.505700      0.074367     Biso  1.000000 C
   C180       1.0     0.494300      0.282100      0.741033     Biso  1.000000 C
   C181       1.0     0.081600      0.052800      0.921500     Biso  1.000000 C
   C182       1.0     0.947200      0.028800      0.588167     Biso  1.000000 C
   C183       1.0     0.971200      0.918400      0.254833     Biso  1.000000 C
   C184       1.0     0.918400      0.947200      0.421500     Biso  1.000000 C
   C185       1.0     0.052800      0.971200      0.088167     Biso  1.000000 C
   C186       1.0     0.028800      0.081600      0.754833     Biso  1.000000 C
   C187       1.0     0.168200      0.787800      0.864300     Biso  1.000000 C
   C188       1.0     0.212200      0.380400      0.530967     Biso  1.000000 C
   C189       1.0     0.619600      0.831800      0.197633     Biso  1.000000 C
   C190       1.0     0.831800      0.212200      0.364300     Biso  1.000000 C
   C191       1.0     0.787800      0.619600      0.030967     Biso  1.000000 C
   C192       1.0     0.380400      0.168200      0.697633     Biso  1.000000 C
   C193       1.0     0.179700      0.848300      0.904900     Biso  1.000000 C
   C194       1.0     0.151700      0.331400      0.571567     Biso  1.000000 C
   C195       1.0     0.668600      0.820300      0.238233     Biso  1.000000 C
   C196       1.0     0.820300      0.151700      0.404900     Biso  1.000000 C
   C197       1.0     0.848300      0.668600      0.071567     Biso  1.000000 C
   C198       1.0     0.331400      0.179700      0.738233     Biso  1.000000 C
   C199       1.0     0.825000      0.507000      0.892900     Biso  1.000000 C
   C200       1.0     0.493000      0.318000      0.559567     Biso  1.000000 C
   C201       1.0     0.682000      0.175000      0.226233     Biso  1.000000 C
   C202       1.0     0.175000      0.493000      0.392900     Biso  1.000000 C
   C203       1.0     0.507000      0.682000      0.059567     Biso  1.000000 C
   C204       1.0     0.318000      0.825000      0.726233     Biso  1.000000 C
   H1         1.0     0.917700      0.096600      0.023400     Biso  1.000000 H
   H2         1.0     0.903400      0.821100      0.690067     Biso  1.000000 H
   H3         1.0     0.178900      0.082300      0.356733     Biso  1.000000 H
   H4         1.0     0.082300      0.903400      0.523400     Biso  1.000000 H
   H5         1.0     0.096600      0.178900      0.190067     Biso  1.000000 H
   H6         1.0     0.821100      0.917700      0.856733     Biso  1.000000 H
   H7         1.0     0.611000      0.362000      0.873000     Biso  1.000000 H
   H8         1.0     0.638000      0.249000      0.539667     Biso  1.000000 H
   H9         1.0     0.751000      0.389000      0.206333     Biso  1.000000 H
   H10        1.0     0.389000      0.638000      0.373000     Biso  1.000000 H
   H11        1.0     0.362000      0.751000      0.039667     Biso  1.000000 H
   H12        1.0     0.249000      0.611000      0.706333     Biso  1.000000 H
   H13        1.0     0.605000      0.375000      0.933000     Biso  1.000000 H
   H14        1.0     0.625000      0.230000      0.599667     Biso  1.000000 H
   H15        1.0     0.770000      0.395000      0.266333     Biso  1.000000 H
   H16        1.0     0.395000      0.625000      0.433000     Biso  1.000000 H
   H17        1.0     0.375000      0.770000      0.099667     Biso  1.000000 H
   H18        1.0     0.230000      0.605000      0.766333     Biso  1.000000 H
   H19        1.0     0.827800      0.138600      0.047500     Biso  1.000000 H
   H20        1.0     0.861400      0.689200      0.714167     Biso  1.000000 H
   H21        1.0     0.310800      0.172200      0.380833     Biso  1.000000 H
   H22        1.0     0.172200      0.861400      0.547500     Biso  1.000000 H
   H23        1.0     0.138600      0.310800      0.214167     Biso  1.000000 H
   H24        1.0     0.689200      0.827800      0.880833     Biso  1.000000 H
   H25        1.0     0.937900      0.317800      0.920600     Biso  1.000000 H
   H26        1.0     0.682200      0.620100      0.587267     Biso  1.000000 H
   H27        1.0     0.379900      0.062100      0.253933     Biso  1.000000 H
   H28        1.0     0.062100      0.682200      0.420600     Biso  1.000000 H
   H29        1.0     0.317800      0.379900      0.087267     Biso  1.000000 H
   H30        1.0     0.620100      0.937900      0.753933     Biso  1.000000 H
   H31        1.0     0.026800      0.276500      0.896100     Biso  1.000000 H
   H32        1.0     0.723500      0.750300      0.562767     Biso  1.000000 H
   H33        1.0     0.249700      0.973200      0.229433     Biso  1.000000 H
   H34        1.0     0.973200      0.723500      0.396100     Biso  1.000000 H
   H35        1.0     0.276500      0.249700      0.062767     Biso  1.000000 H
   H36        1.0     0.750300      0.026800      0.729433     Biso  1.000000 H
   H37        1.0     0.188100      0.440200      0.025500     Biso  1.000000 H
   H38        1.0     0.559800      0.747900      0.692167     Biso  1.000000 H
   H39        1.0     0.252100      0.811900      0.358833     Biso  1.000000 H
   H40        1.0     0.811900      0.559800      0.525500     Biso  1.000000 H
   H41        1.0     0.440200      0.252100      0.192167     Biso  1.000000 H
   H42        1.0     0.747900      0.188100      0.858833     Biso  1.000000 H
   H43        1.0     0.105200      0.304600      0.018600     Biso  1.000000 H
   H44        1.0     0.695400      0.800600      0.685267     Biso  1.000000 H
   H45        1.0     0.199400      0.894800      0.351933     Biso  1.000000 H
   H46        1.0     0.894800      0.695400      0.518600     Biso  1.000000 H
   H47        1.0     0.304600      0.199400      0.185267     Biso  1.000000 H
   H48        1.0     0.800600      0.105200      0.851933     Biso  1.000000 H
   H49        1.0     0.342900      0.426700      0.905000     Biso  1.000000 H
   H50        1.0     0.573300      0.916200      0.571667     Biso  1.000000 H
   H51        1.0     0.083800      0.657100      0.238333     Biso  1.000000 H
   H52        1.0     0.657100      0.573300      0.405000     Biso  1.000000 H
   H53        1.0     0.426700      0.083800      0.071667     Biso  1.000000 H
   H54        1.0     0.916200      0.342900      0.738333     Biso  1.000000 H
   H55        1.0     0.258300      0.290900      0.895900     Biso  1.000000 H
   H56        1.0     0.709100      0.967400      0.562567     Biso  1.000000 H
   H57        1.0     0.032600      0.741700      0.229233     Biso  1.000000 H
   H58        1.0     0.741700      0.709100      0.395900     Biso  1.000000 H
   H59        1.0     0.290900      0.032600      0.062567     Biso  1.000000 H
   H60        1.0     0.967400      0.258300      0.729233     Biso  1.000000 H
   H61        1.0     0.039300      0.724700      0.973500     Biso  1.000000 H
   H62        1.0     0.275300      0.314600      0.640167     Biso  1.000000 H
   H63        1.0     0.685400      0.960700      0.306833     Biso  1.000000 H
   H64        1.0     0.960700      0.275300      0.473500     Biso  1.000000 H
   H65        1.0     0.724700      0.685400      0.140167     Biso  1.000000 H
   H66        1.0     0.314600      0.039300      0.806833     Biso  1.000000 H
   H67        1.0     0.125000      0.766600      0.835200     Biso  1.000000 H
   H68        1.0     0.233400      0.358400      0.501867     Biso  1.000000 H
   H69        1.0     0.641600      0.875000      0.168533     Biso  1.000000 H
   H70        1.0     0.875000      0.233400      0.335200     Biso  1.000000 H
   H71        1.0     0.766600      0.641600      0.001867     Biso  1.000000 H
   H72        1.0     0.358400      0.125000      0.668533     Biso  1.000000 H
   H73        1.0     0.949100      0.589800      0.970400     Biso  1.000000 H
   H74        1.0     0.410200      0.359300      0.637067     Biso  1.000000 H
   H75        1.0     0.640700      0.050900      0.303733     Biso  1.000000 H
   H76        1.0     0.050900      0.410200      0.470400     Biso  1.000000 H
   H77        1.0     0.589800      0.640700      0.137067     Biso  1.000000 H
   H78        1.0     0.359300      0.949100      0.803733     Biso  1.000000 H
   H79        1.0     0.931300      0.757600      0.820500     Biso  1.000000 H
   H80        1.0     0.242400      0.173700      0.487167     Biso  1.000000 H
   H81        1.0     0.826300      0.068700      0.153833     Biso  1.000000 H
   H82        1.0     0.068700      0.242400      0.320500     Biso  1.000000 H
   H83        1.0     0.757600      0.826300      0.987167     Biso  1.000000 H
   H84        1.0     0.173700      0.931300      0.653833     Biso  1.000000 H
   H85        1.0     0.841000      0.622300      0.817300     Biso  1.000000 H
   H86        1.0     0.377700      0.218700      0.483967     Biso  1.000000 H
   H87        1.0     0.781300      0.159000      0.150633     Biso  1.000000 H
   H88        1.0     0.159000      0.377700      0.317300     Biso  1.000000 H
   H89        1.0     0.622300      0.781300      0.983967     Biso  1.000000 H
   H90        1.0     0.218700      0.841000      0.650633     Biso  1.000000 H
   H91        1.0     0.339500      0.871800      0.976200     Biso  1.000000 H
   H92        1.0     0.128200      0.467700      0.642867     Biso  1.000000 H
   H93        1.0     0.532300      0.660500      0.309533     Biso  1.000000 H
   H94        1.0     0.660500      0.128200      0.476200     Biso  1.000000 H
   H95        1.0     0.871800      0.532300      0.142867     Biso  1.000000 H
   H96        1.0     0.467700      0.339500      0.809533     Biso  1.000000 H
   H97        1.0     0.210100      0.715800      0.836900     Biso  1.000000 H
   H98        1.0     0.284200      0.494300      0.503567     Biso  1.000000 H
   H99        1.0     0.505700      0.789900      0.170233     Biso  1.000000 H
   H100       1.0     0.789900      0.284200      0.336900     Biso  1.000000 H
   H101       1.0     0.715800      0.505700      0.003567     Biso  1.000000 H
   H102       1.0     0.494300      0.210100      0.670233     Biso  1.000000 H
   H103       1.0     0.255200      0.923400      0.973600     Biso  1.000000 H
   H104       1.0     0.076600      0.331800      0.640267     Biso  1.000000 H
   H105       1.0     0.668200      0.744800      0.306933     Biso  1.000000 H
   H106       1.0     0.744800      0.076600      0.473600     Biso  1.000000 H
   H107       1.0     0.923400      0.668200      0.140267     Biso  1.000000 H
   H108       1.0     0.331800      0.255200      0.806933     Biso  1.000000 H
   H109       1.0     0.630000      0.190000      0.010000     Biso  1.000000 H
   H110       1.0     0.810000      0.440000      0.676667     Biso  1.000000 H
   H111       1.0     0.560000      0.370000      0.343333     Biso  1.000000 H
   H112       1.0     0.370000      0.810000      0.510000     Biso  1.000000 H
   H113       1.0     0.190000      0.560000      0.176667     Biso  1.000000 H
   H114       1.0     0.440000      0.630000      0.843333     Biso  1.000000 H
   H115       1.0     0.630000      0.180000      0.940000     Biso  1.000000 H
   H116       1.0     0.820000      0.450000      0.606667     Biso  1.000000 H
   H117       1.0     0.550000      0.370000      0.273333     Biso  1.000000 H
   H118       1.0     0.370000      0.820000      0.440000     Biso  1.000000 H
   H119       1.0     0.180000      0.550000      0.106667     Biso  1.000000 H
   H120       1.0     0.450000      0.630000      0.773333     Biso  1.000000 H
