#======================================================================

# CRYSTAL DATA

#----------------------------------------------------------------------

data_VESTA_phase_1


_pd_phase_name                         'ZnTTFTB - PBEsol                      '
_cell_length_a                         19.29300
_cell_length_b                         19.29300
_cell_length_c                         20.83800
_cell_angle_alpha                      90
_cell_angle_beta                       90
_cell_angle_gamma                      120
_symmetry_space_group_name_H-M         'P 1'
_symmetry_Int_Tables_number            1

loop_
_symmetry_equiv_pos_as_xyz
   'x, y, z'

loop_
   _atom_site_label
   _atom_site_occupancy
   _atom_site_fract_x
   _atom_site_fract_y
   _atom_site_fract_z
   _atom_site_adp_type
   _atom_site_B_iso_or_equiv
   _atom_site_type_symbol
   C1         1.0     0.911900      0.997600      0.095670     Biso  1.000000 C
   C2         1.0     0.002400      0.914300      0.762337     Biso  1.000000 C
   C3         1.0     0.085700      0.088100      0.429003     Biso  1.000000 C
   C4         1.0     0.088100      0.002400      0.595670     Biso  1.000000 C
   C5         1.0     0.997600      0.085700      0.262337     Biso  1.000000 C
   C6         1.0     0.914300      0.911900      0.929003     Biso  1.000000 C
   C7         1.0     0.913000      0.930000      0.103140     Biso  1.000000 C
   C8         1.0     0.070000      0.983000      0.769807     Biso  1.000000 C
   C9         1.0     0.017000      0.087000      0.436473     Biso  1.000000 C
   C10        1.0     0.087000      0.070000      0.603140     Biso  1.000000 C
   C11        1.0     0.930000      0.017000      0.269807     Biso  1.000000 C
   C12        1.0     0.983000      0.913000      0.936473     Biso  1.000000 C
   C13        1.0     0.120100      0.397600      0.074380     Biso  1.000000 C
   C14        1.0     0.602400      0.722500      0.741047     Biso  1.000000 C
   C15        1.0     0.277500      0.879900      0.407713     Biso  1.000000 C
   C16        1.0     0.879900      0.602400      0.574380     Biso  1.000000 C
   C17        1.0     0.397600      0.277500      0.241047     Biso  1.000000 C
   C18        1.0     0.722500      0.120100      0.907713     Biso  1.000000 C
   C19        1.0     0.951800      0.148200      0.086720     Biso  1.000000 C
   C20        1.0     0.851800      0.803600      0.753387     Biso  1.000000 C
   C21        1.0     0.196400      0.048200      0.420053     Biso  1.000000 C
   C22        1.0     0.048200      0.851800      0.586720     Biso  1.000000 C
   C23        1.0     0.148200      0.196400      0.253387     Biso  1.000000 C
   C24        1.0     0.803600      0.951800      0.920053     Biso  1.000000 C
   C25        1.0     0.957700      0.825100      0.125760     Biso  1.000000 C
   C26        1.0     0.174900      0.132600      0.792427     Biso  1.000000 C
   C27        1.0     0.867400      0.042300      0.459093     Biso  1.000000 C
   C28        1.0     0.042300      0.174900      0.625760     Biso  1.000000 C
   C29        1.0     0.825100      0.867400      0.292427     Biso  1.000000 C
   C30        1.0     0.132600      0.957700      0.959093     Biso  1.000000 C
   C31        1.0     0.185230      0.483960      0.071990     Biso  1.000000 C
   C32        1.0     0.516040      0.701270      0.738657     Biso  1.000000 C
   C33        1.0     0.298730      0.814770      0.405323     Biso  1.000000 C
   C34        1.0     0.814770      0.516040      0.571990     Biso  1.000000 C
   C35        1.0     0.483960      0.298730      0.238657     Biso  1.000000 C
   C36        1.0     0.701270      0.185230      0.905323     Biso  1.000000 C
   C37        1.0     0.871600      0.107400      0.090470     Biso  1.000000 C
   C38        1.0     0.892600      0.764200      0.757137     Biso  1.000000 C
   C39        1.0     0.235800      0.128400      0.423803     Biso  1.000000 C
   C40        1.0     0.128400      0.892600      0.590470     Biso  1.000000 C
   C41        1.0     0.107400      0.235800      0.257137     Biso  1.000000 C
   C42        1.0     0.764200      0.871600      0.923803     Biso  1.000000 C
   C43        1.0     0.058700      0.369900      0.119690     Biso  1.000000 C
   C44        1.0     0.630100      0.688800      0.786357     Biso  1.000000 C
   C45        1.0     0.311200      0.941300      0.453023     Biso  1.000000 C
   C46        1.0     0.941300      0.630100      0.619690     Biso  1.000000 C
   C47        1.0     0.369900      0.311200      0.286357     Biso  1.000000 C
   C48        1.0     0.688800      0.058700      0.953023     Biso  1.000000 C
   C49        1.0     0.122670      0.344580      0.031410     Biso  1.000000 C
   C50        1.0     0.655420      0.778090      0.698077     Biso  1.000000 C
   C51        1.0     0.221910      0.877330      0.364743     Biso  1.000000 C
   C52        1.0     0.877330      0.655420      0.531410     Biso  1.000000 C
   C53        1.0     0.344580      0.221910      0.198077     Biso  1.000000 C
   C54        1.0     0.778090      0.122670      0.864743     Biso  1.000000 C
   C55        1.0     0.002700      0.289700      0.123280     Biso  1.000000 C
   C56        1.0     0.710300      0.713000      0.789947     Biso  1.000000 C
   C57        1.0     0.287000      0.997300      0.456613     Biso  1.000000 C
   C58        1.0     0.997300      0.710300      0.623280     Biso  1.000000 C
   C59        1.0     0.289700      0.287000      0.289947     Biso  1.000000 C
   C60        1.0     0.713000      0.002700      0.956613     Biso  1.000000 C
   C61        1.0     0.067000      0.263600      0.035170     Biso  1.000000 C
   C62        1.0     0.736400      0.803400      0.701837     Biso  1.000000 C
   C63        1.0     0.196600      0.933000      0.368503     Biso  1.000000 C
   C64        1.0     0.933000      0.736400      0.535170     Biso  1.000000 C
   C65        1.0     0.263600      0.196600      0.201837     Biso  1.000000 C
   C66        1.0     0.803400      0.067000      0.868503     Biso  1.000000 C
   C67        1.0     0.841700      0.650500      0.178190     Biso  1.000000 C
   C68        1.0     0.349500      0.191200      0.844857     Biso  1.000000 C
   C69        1.0     0.808800      0.158300      0.511523     Biso  1.000000 C
   C70        1.0     0.158300      0.349500      0.678190     Biso  1.000000 C
   C71        1.0     0.650500      0.808800      0.344857     Biso  1.000000 C
   C72        1.0     0.191200      0.841700      0.011523     Biso  1.000000 C
   C73        1.0     0.006800      0.235700      0.081220     Biso  1.000000 C
   C74        1.0     0.764300      0.771100      0.747887     Biso  1.000000 C
   C75        1.0     0.228900      0.993200      0.414553     Biso  1.000000 C
   C76        1.0     0.993200      0.764300      0.581220     Biso  1.000000 C
   C77        1.0     0.235700      0.228900      0.247887     Biso  1.000000 C
   C78        1.0     0.771100      0.006800      0.914553     Biso  1.000000 C
   C79        1.0     0.714980      0.203640      0.095100     Biso  1.000000 C
   C80        1.0     0.796360      0.511340      0.761767     Biso  1.000000 C
   C81        1.0     0.488660      0.285020      0.428433     Biso  1.000000 C
   C82        1.0     0.285020      0.796360      0.595100     Biso  1.000000 C
   C83        1.0     0.203640      0.488660      0.261767     Biso  1.000000 C
   C84        1.0     0.511340      0.714980      0.928433     Biso  1.000000 C
   C85        1.0     0.777660      0.233620      0.051610     Biso  1.000000 C
   C86        1.0     0.766380      0.544040      0.718277     Biso  1.000000 C
   C87        1.0     0.455960      0.222340      0.384943     Biso  1.000000 C
   C88        1.0     0.222340      0.766380      0.551610     Biso  1.000000 C
   C89        1.0     0.233620      0.455960      0.218277     Biso  1.000000 C
   C90        1.0     0.544040      0.777660      0.884943     Biso  1.000000 C
   C91        1.0     0.877500      0.781700      0.125400     Biso  1.000000 C
   C92        1.0     0.218300      0.095800      0.792067     Biso  1.000000 C
   C93        1.0     0.904200      0.122500      0.458733     Biso  1.000000 C
   C94        1.0     0.122500      0.218300      0.625400     Biso  1.000000 C
   C95        1.0     0.781700      0.904200      0.292067     Biso  1.000000 C
   C96        1.0     0.095800      0.877500      0.958733     Biso  1.000000 C
   C97        1.0     0.672000      0.439400      0.150910     Biso  1.000000 C
   C98        1.0     0.560600      0.232600      0.817577     Biso  1.000000 C
   C99        1.0     0.767400      0.328000      0.484243     Biso  1.000000 C
   C100       1.0     0.328000      0.560600      0.650910     Biso  1.000000 C
   C101       1.0     0.439400      0.767400      0.317577     Biso  1.000000 C
   C102       1.0     0.232600      0.672000      0.984243     Biso  1.000000 C
   C103       1.0     0.658900      0.235200      0.097930     Biso  1.000000 C
   C104       1.0     0.764800      0.423700      0.764597     Biso  1.000000 C
   C105       1.0     0.576300      0.341100      0.431263     Biso  1.000000 C
   C106       1.0     0.341100      0.764800      0.597930     Biso  1.000000 C
   C107       1.0     0.235200      0.576300      0.264597     Biso  1.000000 C
   C108       1.0     0.423700      0.658900      0.931263     Biso  1.000000 C
   C109       1.0     0.130500      0.753700      0.164570     Biso  1.000000 C
   C110       1.0     0.246300      0.376800      0.831237     Biso  1.000000 C
   C111       1.0     0.623200      0.869500      0.497903     Biso  1.000000 C
   C112       1.0     0.869500      0.246300      0.664570     Biso  1.000000 C
   C113       1.0     0.753700      0.623200      0.331237     Biso  1.000000 C
   C114       1.0     0.376800      0.130500      0.997903     Biso  1.000000 C
   C115       1.0     0.134900      0.820200      0.193790     Biso  1.000000 C
   C116       1.0     0.179800      0.314700      0.860457     Biso  1.000000 C
   C117       1.0     0.685300      0.865100      0.527123     Biso  1.000000 C
   C118       1.0     0.865100      0.179800      0.693790     Biso  1.000000 C
   C119       1.0     0.820200      0.685300      0.360457     Biso  1.000000 C
   C120       1.0     0.314700      0.134900      0.027123     Biso  1.000000 C
   C121       1.0     0.012500      0.732500      0.108330     Biso  1.000000 C
   C122       1.0     0.267500      0.280000      0.774997     Biso  1.000000 C
   C123       1.0     0.720000      0.987500      0.441663     Biso  1.000000 C
   C124       1.0     0.987500      0.267500      0.608330     Biso  1.000000 C
   C125       1.0     0.732500      0.720000      0.274997     Biso  1.000000 C
   C126       1.0     0.280000      0.012500      0.941663     Biso  1.000000 C
   C127       1.0     0.190000      0.728300      0.180300     Biso  1.000000 C
   C128       1.0     0.271700      0.461700      0.846967     Biso  1.000000 C
   C129       1.0     0.538300      0.810000      0.513633     Biso  1.000000 C
   C130       1.0     0.810000      0.271700      0.680300     Biso  1.000000 C
   C131       1.0     0.728300      0.538300      0.346967     Biso  1.000000 C
   C132       1.0     0.461700      0.190000      0.013633     Biso  1.000000 C
   C133       1.0     0.792000      0.568500      0.183980     Biso  1.000000 C
   C134       1.0     0.431500      0.223500      0.850647     Biso  1.000000 C
   C135       1.0     0.776500      0.208000      0.517313     Biso  1.000000 C
   C136       1.0     0.208000      0.431500      0.683980     Biso  1.000000 C
   C137       1.0     0.568500      0.776500      0.350647     Biso  1.000000 C
   C138       1.0     0.223500      0.792000      0.017313     Biso  1.000000 C
   C139       1.0     0.724400      0.527900      0.145780     Biso  1.000000 C
   C140       1.0     0.472100      0.196500      0.812447     Biso  1.000000 C
   C141       1.0     0.803500      0.275600      0.479113     Biso  1.000000 C
   C142       1.0     0.275600      0.472100      0.645780     Biso  1.000000 C
   C143       1.0     0.527900      0.803500      0.312447     Biso  1.000000 C
   C144       1.0     0.196500      0.724400      0.979113     Biso  1.000000 C
   C145       1.0     0.706700      0.571500      0.101650     Biso  1.000000 C
   C146       1.0     0.428500      0.135200      0.768317     Biso  1.000000 C
   C147       1.0     0.864800      0.293300      0.434983     Biso  1.000000 C
   C148       1.0     0.293300      0.428500      0.601650     Biso  1.000000 C
   C149       1.0     0.571500      0.864800      0.268317     Biso  1.000000 C
   C150       1.0     0.135200      0.706700      0.934983     Biso  1.000000 C
   C151       1.0     0.825000      0.694000      0.133420     Biso  1.000000 C
   C152       1.0     0.306000      0.131000      0.800087     Biso  1.000000 C
   C153       1.0     0.869000      0.175000      0.466753     Biso  1.000000 C
   C154       1.0     0.175000      0.306000      0.633420     Biso  1.000000 C
   C155       1.0     0.694000      0.869000      0.300087     Biso  1.000000 C
   C156       1.0     0.131000      0.825000      0.966753     Biso  1.000000 C
   C157       1.0     0.756000      0.653100      0.095870     Biso  1.000000 C
   C158       1.0     0.346900      0.102900      0.762537     Biso  1.000000 C
   C159       1.0     0.897100      0.244000      0.429203     Biso  1.000000 C
   C160       1.0     0.244000      0.346900      0.595870     Biso  1.000000 C
   C161       1.0     0.653100      0.897100      0.262537     Biso  1.000000 C
   C162       1.0     0.102900      0.756000      0.929203     Biso  1.000000 C
   C163       1.0     0.016700      0.798400      0.138920     Biso  1.000000 C
   C164       1.0     0.201600      0.218300      0.805587     Biso  1.000000 C
   C165       1.0     0.781700      0.983300      0.472253     Biso  1.000000 C
   C166       1.0     0.983300      0.201600      0.638920     Biso  1.000000 C
   C167       1.0     0.798400      0.781700      0.305587     Biso  1.000000 C
   C168       1.0     0.218300      0.016700      0.972253     Biso  1.000000 C
   C169       1.0     0.078900      0.843200      0.180820     Biso  1.000000 C
   C170       1.0     0.156800      0.235700      0.847487     Biso  1.000000 C
   C171       1.0     0.764300      0.921100      0.514153     Biso  1.000000 C
   C172       1.0     0.921100      0.156800      0.680820     Biso  1.000000 C
   C173       1.0     0.843200      0.764300      0.347487     Biso  1.000000 C
   C174       1.0     0.235700      0.078900      0.014153     Biso  1.000000 C
   C175       1.0     0.069300      0.710700      0.121730     Biso  1.000000 C
   C176       1.0     0.289300      0.358600      0.788397     Biso  1.000000 C
   C177       1.0     0.641400      0.930700      0.455063     Biso  1.000000 C
   C178       1.0     0.930700      0.289300      0.621730     Biso  1.000000 C
   C179       1.0     0.710700      0.641400      0.288397     Biso  1.000000 C
   C180       1.0     0.358600      0.069300      0.955063     Biso  1.000000 C
   C181       1.0     0.829100      0.202700      0.049700     Biso  1.000000 C
   C182       1.0     0.797300      0.626400      0.716367     Biso  1.000000 C
   C183       1.0     0.373600      0.170900      0.383033     Biso  1.000000 C
   C184       1.0     0.170900      0.797300      0.549700     Biso  1.000000 C
   C185       1.0     0.202700      0.373600      0.216367     Biso  1.000000 C
   C186       1.0     0.626400      0.829100      0.883033     Biso  1.000000 C
   C187       1.0     0.817300      0.140900      0.091650     Biso  1.000000 C
   C188       1.0     0.859100      0.676400      0.758317     Biso  1.000000 C
   C189       1.0     0.323600      0.182700      0.424983     Biso  1.000000 C
   C190       1.0     0.182700      0.859100      0.591650     Biso  1.000000 C
   C191       1.0     0.140900      0.323600      0.258317     Biso  1.000000 C
   C192       1.0     0.676400      0.817300      0.924983     Biso  1.000000 C
   C193       1.0     0.703100      0.142200      0.137120     Biso  1.000000 C
   C194       1.0     0.857800      0.560900      0.803787     Biso  1.000000 C
   C195       1.0     0.439100      0.296900      0.470453     Biso  1.000000 C
   C196       1.0     0.296900      0.857800      0.637120     Biso  1.000000 C
   C197       1.0     0.142200      0.439100      0.303787     Biso  1.000000 C
   C198       1.0     0.560900      0.703100      0.970453     Biso  1.000000 C
   C199       1.0     0.754300      0.111400      0.135570     Biso  1.000000 C
   C200       1.0     0.888600      0.642900      0.802237     Biso  1.000000 C
   C201       1.0     0.357100      0.245700      0.468903     Biso  1.000000 C
   C202       1.0     0.245700      0.888600      0.635570     Biso  1.000000 C
   C203       1.0     0.111400      0.357100      0.302237     Biso  1.000000 C
   C204       1.0     0.642900      0.754300      0.968903     Biso  1.000000 C
   S1         1.0     0.999580      0.090570      0.085890     Biso  1.000000 S
   S2         1.0     0.909430      0.909010      0.752557     Biso  1.000000 S
   S3         1.0     0.090990      0.000420      0.419223     Biso  1.000000 S
   S4         1.0     0.000420      0.909430      0.585890     Biso  1.000000 S
   S5         1.0     0.090570      0.090990      0.252557     Biso  1.000000 S
   S6         1.0     0.909010      0.999580      0.919223     Biso  1.000000 S
   S7         1.0     0.823360      0.002040      0.093660     Biso  1.000000 S
   S8         1.0     0.997960      0.821320      0.760327     Biso  1.000000 S
   S9         1.0     0.178680      0.176640      0.426993     Biso  1.000000 S
   S10        1.0     0.176640      0.997960      0.593660     Biso  1.000000 S
   S11        1.0     0.002040      0.178680      0.260327     Biso  1.000000 S
   S12        1.0     0.821320      0.823360      0.926993     Biso  1.000000 S
   S13        1.0     0.826460      0.834950      0.109270     Biso  1.000000 S
   S14        1.0     0.165050      0.991510      0.775937     Biso  1.000000 S
   S15        1.0     0.008490      0.173540      0.442603     Biso  1.000000 S
   S16        1.0     0.173540      0.165050      0.609270     Biso  1.000000 S
   S17        1.0     0.834950      0.008490      0.275937     Biso  1.000000 S
   S18        1.0     0.991510      0.826460      0.942603     Biso  1.000000 S
   S19        1.0     0.002500      0.927040      0.106900     Biso  1.000000 S
   S20        1.0     0.072960      0.075460      0.773567     Biso  1.000000 S
   S21        1.0     0.924540      0.997500      0.440233     Biso  1.000000 S
   S22        1.0     0.997500      0.072960      0.606900     Biso  1.000000 S
   S23        1.0     0.927040      0.924540      0.273567     Biso  1.000000 S
   S24        1.0     0.075460      0.002500      0.940233     Biso  1.000000 S
   H1         1.0     0.055500      0.406600      0.148200     Biso  1.000000 H
   H2         1.0     0.593400      0.648900      0.814867     Biso  1.000000 H
   H3         1.0     0.351100      0.944500      0.481533     Biso  1.000000 H
   H4         1.0     0.944500      0.593400      0.648200     Biso  1.000000 H
   H5         1.0     0.406600      0.351100      0.314867     Biso  1.000000 H
   H6         1.0     0.648900      0.055500      0.981533     Biso  1.000000 H
   H7         1.0     0.162800      0.363600      0.999100     Biso  1.000000 H
   H8         1.0     0.636400      0.799200      0.665767     Biso  1.000000 H
   H9         1.0     0.200800      0.837200      0.332433     Biso  1.000000 H
   H10        1.0     0.837200      0.636400      0.499100     Biso  1.000000 H
   H11        1.0     0.363600      0.200800      0.165767     Biso  1.000000 H
   H12        1.0     0.799200      0.162800      0.832433     Biso  1.000000 H
   H13        1.0     0.785500      0.275300      0.023100     Biso  1.000000 H
   H14        1.0     0.724700      0.510200      0.689767     Biso  1.000000 H
   H15        1.0     0.489800      0.214500      0.356433     Biso  1.000000 H
   H16        1.0     0.214500      0.724700      0.523100     Biso  1.000000 H
   H17        1.0     0.275300      0.489800      0.189767     Biso  1.000000 H
   H18        1.0     0.510200      0.785500      0.856433     Biso  1.000000 H
   H19        1.0     0.961300      0.271100      0.154500     Biso  1.000000 H
   H20        1.0     0.728900      0.690200      0.821167     Biso  1.000000 H
   H21        1.0     0.309800      0.038700      0.487833     Biso  1.000000 H
   H22        1.0     0.038700      0.728900      0.654500     Biso  1.000000 H
   H23        1.0     0.271100      0.309800      0.321167     Biso  1.000000 H
   H24        1.0     0.690200      0.961300      0.987833     Biso  1.000000 H
   H25        1.0     0.660400      0.544700      0.075400     Biso  1.000000 H
   H26        1.0     0.455300      0.115700      0.742067     Biso  1.000000 H
   H27        1.0     0.884300      0.339600      0.408733     Biso  1.000000 H
   H28        1.0     0.339600      0.455300      0.575400     Biso  1.000000 H
   H29        1.0     0.544700      0.884300      0.242067     Biso  1.000000 H
   H30        1.0     0.115700      0.660400      0.908733     Biso  1.000000 H
   H31        1.0     0.804300      0.539600      0.214500     Biso  1.000000 H
   H32        1.0     0.460400      0.264700      0.881167     Biso  1.000000 H
   H33        1.0     0.735300      0.195700      0.547833     Biso  1.000000 H
   H34        1.0     0.195700      0.460400      0.714500     Biso  1.000000 H
   H35        1.0     0.539600      0.735300      0.381167     Biso  1.000000 H
   H36        1.0     0.264700      0.804300      0.047833     Biso  1.000000 H
   H37        1.0     0.746500      0.070100      0.164500     Biso  1.000000 H
   H38        1.0     0.929900      0.676400      0.831167     Biso  1.000000 H
   H39        1.0     0.323600      0.253500      0.497833     Biso  1.000000 H
   H40        1.0     0.253500      0.929900      0.664500     Biso  1.000000 H
   H41        1.0     0.070100      0.323600      0.331167     Biso  1.000000 H
   H42        1.0     0.676400      0.746500      0.997833     Biso  1.000000 H
   H43        1.0     0.887500      0.677400      0.204900     Biso  1.000000 H
   H44        1.0     0.322600      0.210100      0.871567     Biso  1.000000 H
   H45        1.0     0.789900      0.112500      0.538233     Biso  1.000000 H
   H46        1.0     0.112500      0.322600      0.704900     Biso  1.000000 H
   H47        1.0     0.677400      0.789900      0.371567     Biso  1.000000 H
   H48        1.0     0.210100      0.887500      0.038233     Biso  1.000000 H
   H49        1.0     0.742800      0.682000      0.066000     Biso  1.000000 H
   H50        1.0     0.318000      0.060800      0.732667     Biso  1.000000 H
   H51        1.0     0.939200      0.257200      0.399333     Biso  1.000000 H
   H52        1.0     0.257200      0.318000      0.566000     Biso  1.000000 H
   H53        1.0     0.682000      0.939200      0.232667     Biso  1.000000 H
   H54        1.0     0.060800      0.742800      0.899333     Biso  1.000000 H
   H55        1.0     0.069900      0.227200      0.006200     Biso  1.000000 H
   H56        1.0     0.772800      0.842700      0.672867     Biso  1.000000 H
   H57        1.0     0.157300      0.930100      0.339533     Biso  1.000000 H
   H58        1.0     0.930100      0.772800      0.506200     Biso  1.000000 H
   H59        1.0     0.227200      0.157300      0.172867     Biso  1.000000 H
   H60        1.0     0.842700      0.069900      0.839533     Biso  1.000000 H
   H61        1.0     0.083333      0.889500      0.200600     Biso  1.000000 H
   H62        1.0     0.110500      0.193833      0.867267     Biso  1.000000 H
   H63        1.0     0.806167      0.916667      0.533933     Biso  1.000000 H
   H64        1.0     0.916667      0.110500      0.700600     Biso  1.000000 H
   H65        1.0     0.889500      0.806167      0.367267     Biso  1.000000 H
   H66        1.0     0.193833      0.083333      0.033933     Biso  1.000000 H
   H67        1.0     0.177000      0.850500      0.223200     Biso  1.000000 H
   H68        1.0     0.149500      0.326500      0.889867     Biso  1.000000 H
   H69        1.0     0.673500      0.823000      0.556533     Biso  1.000000 H
   H70        1.0     0.823000      0.149500      0.723200     Biso  1.000000 H
   H71        1.0     0.850500      0.673500      0.389867     Biso  1.000000 H
   H72        1.0     0.326500      0.177000      0.056533     Biso  1.000000 H
   H73        1.0     0.618000      0.388000      0.014500     Biso  1.000000 H
   H74        1.0     0.612000      0.230000      0.681167     Biso  1.000000 H
   H75        1.0     0.770000      0.382000      0.347833     Biso  1.000000 H
   H76        1.0     0.382000      0.612000      0.514500     Biso  1.000000 H
   H77        1.0     0.388000      0.770000      0.181167     Biso  1.000000 H
   H78        1.0     0.230000      0.618000      0.847833     Biso  1.000000 H
   H79        1.0     0.971000      0.702600      0.078400     Biso  1.000000 H
   H80        1.0     0.297400      0.268400      0.745067     Biso  1.000000 H
   H81        1.0     0.731600      0.029000      0.411733     Biso  1.000000 H
   H82        1.0     0.029000      0.297400      0.578400     Biso  1.000000 H
   H83        1.0     0.702600      0.731600      0.245067     Biso  1.000000 H
   H84        1.0     0.268400      0.971000      0.911733     Biso  1.000000 H
   H85        1.0     0.761000      0.362000      0.906600     Biso  1.000000 H
   H86        1.0     0.638000      0.399000      0.573267     Biso  1.000000 H
   H87        1.0     0.601000      0.239000      0.239933     Biso  1.000000 H
   H88        1.0     0.239000      0.638000      0.406600     Biso  1.000000 H
   H89        1.0     0.362000      0.601000      0.073267     Biso  1.000000 H
   H90        1.0     0.399000      0.761000      0.739933     Biso  1.000000 H
   H91        1.0     0.872300      0.223500      0.020000     Biso  1.000000 H
   H92        1.0     0.776500      0.648800      0.686667     Biso  1.000000 H
   H93        1.0     0.351200      0.127700      0.353333     Biso  1.000000 H
   H94        1.0     0.127700      0.776500      0.520000     Biso  1.000000 H
   H95        1.0     0.223500      0.351200      0.186667     Biso  1.000000 H
   H96        1.0     0.648800      0.872300      0.853333     Biso  1.000000 H
   H97        1.0     0.066100      0.665200      0.101000     Biso  1.000000 H
   H98        1.0     0.334800      0.400900      0.767667     Biso  1.000000 H
   H99        1.0     0.599100      0.933900      0.434333     Biso  1.000000 H
   H100       1.0     0.933900      0.334800      0.601000     Biso  1.000000 H
   H101       1.0     0.665200      0.599100      0.267667     Biso  1.000000 H
   H102       1.0     0.400900      0.066100      0.934333     Biso  1.000000 H
   H103       1.0     0.755000      0.414400      0.952000     Biso  1.000000 H
   H104       1.0     0.585600      0.340600      0.618667     Biso  1.000000 H
   H105       1.0     0.659400      0.245000      0.285333     Biso  1.000000 H
   H106       1.0     0.245000      0.585600      0.452000     Biso  1.000000 H
   H107       1.0     0.414400      0.659400      0.118667     Biso  1.000000 H
   H108       1.0     0.340600      0.755000      0.785333     Biso  1.000000 H
   H109       1.0     0.631000      0.401500      0.945600     Biso  1.000000 H
   H110       1.0     0.598500      0.229500      0.612267     Biso  1.000000 H
   H111       1.0     0.770500      0.369000      0.278933     Biso  1.000000 H
   H112       1.0     0.369000      0.598500      0.445600     Biso  1.000000 H
   H113       1.0     0.401500      0.770500      0.112267     Biso  1.000000 H
   H114       1.0     0.229500      0.631000      0.778933     Biso  1.000000 H
   H115       1.0     0.659900      0.121600      0.166667     Biso  1.000000 H
   H116       1.0     0.878400      0.538300      0.833333     Biso  1.000000 H
   H117       1.0     0.461700      0.340100      0.500000     Biso  1.000000 H
   H118       1.0     0.340100      0.878400      0.666667     Biso  1.000000 H
   H119       1.0     0.121600      0.461700      0.333333     Biso  1.000000 H
   H120       1.0     0.538300      0.659900      0.000000     Biso  1.000000 H
   O1         1.0     0.241540      0.500050      0.033270     Biso  1.000000 O
   O2         1.0     0.499950      0.741490      0.699937     Biso  1.000000 O
   O3         1.0     0.258510      0.758460      0.366603     Biso  1.000000 O
   O4         1.0     0.758460      0.499950      0.533270     Biso  1.000000 O
   O5         1.0     0.500050      0.258510      0.199937     Biso  1.000000 O
   O6         1.0     0.741490      0.241540      0.866603     Biso  1.000000 O
   O7         1.0     0.182330      0.533820      0.108750     Biso  1.000000 O
   O8         1.0     0.466180      0.648510      0.775417     Biso  1.000000 O
   O9         1.0     0.351490      0.817670      0.442083     Biso  1.000000 O
   O10        1.0     0.817670      0.466180      0.608750     Biso  1.000000 O
   O11        1.0     0.533820      0.351490      0.275417     Biso  1.000000 O
   O12        1.0     0.648510      0.182330      0.942083     Biso  1.000000 O
   O13        1.0     0.614970      0.404650      0.110170     Biso  1.000000 O
   O14        1.0     0.595350      0.210320      0.776837     Biso  1.000000 O
   O15        1.0     0.789680      0.385030      0.443503     Biso  1.000000 O
   O16        1.0     0.385030      0.595350      0.610170     Biso  1.000000 O
   O17        1.0     0.404650      0.789680      0.276837     Biso  1.000000 O
   O18        1.0     0.210320      0.614970      0.943503     Biso  1.000000 O
   O19        1.0     0.472440      0.233460      0.063150     Biso  1.000000 O
   O20        1.0     0.766540      0.238980      0.729817     Biso  1.000000 O
   O21        1.0     0.761020      0.527560      0.396483     Biso  1.000000 O
   O22        1.0     0.527560      0.766540      0.563150     Biso  1.000000 O
   O23        1.0     0.233460      0.761020      0.229817     Biso  1.000000 O
   O24        1.0     0.238980      0.472440      0.896483     Biso  1.000000 O
   O25        1.0     0.515000      0.192450      0.978660     Biso  1.000000 O
   O26        1.0     0.807550      0.322550      0.645327     Biso  1.000000 O
   O27        1.0     0.677450      0.485000      0.311993     Biso  1.000000 O
   O28        1.0     0.485000      0.807550      0.478660     Biso  1.000000 O
   O29        1.0     0.192450      0.677450      0.145327     Biso  1.000000 O
   O30        1.0     0.322550      0.515000      0.811993     Biso  1.000000 O
   O31        1.0     0.606720      0.212200      0.141460     Biso  1.000000 O
   O32        1.0     0.787800      0.394520      0.808127     Biso  1.000000 O
   O33        1.0     0.605480      0.393280      0.474793     Biso  1.000000 O
   O34        1.0     0.393280      0.787800      0.641460     Biso  1.000000 O
   O35        1.0     0.212200      0.605480      0.308127     Biso  1.000000 O
   O36        1.0     0.394520      0.606720      0.974793     Biso  1.000000 O
   O37        1.0     0.664530      0.287470      0.057510     Biso  1.000000 O
   O38        1.0     0.712530      0.377060      0.724177     Biso  1.000000 O
   O39        1.0     0.622940      0.335470      0.390843     Biso  1.000000 O
   O40        1.0     0.335470      0.712530      0.557510     Biso  1.000000 O
   O41        1.0     0.287470      0.622940      0.224177     Biso  1.000000 O
   O42        1.0     0.377060      0.664530      0.890843     Biso  1.000000 O
   O43        1.0     0.684660      0.400760      0.193510     Biso  1.000000 O
   O44        1.0     0.599240      0.283900      0.860177     Biso  1.000000 O
   O45        1.0     0.716100      0.315340      0.526843     Biso  1.000000 O
   O46        1.0     0.315340      0.599240      0.693510     Biso  1.000000 O
   O47        1.0     0.400760      0.716100      0.360177     Biso  1.000000 O
   O48        1.0     0.283900      0.684660      0.026843     Biso  1.000000 O
   O49        1.0     0.748770      0.368090      0.943020     Biso  1.000000 O
   O50        1.0     0.631910      0.380680      0.609687     Biso  1.000000 O
   O51        1.0     0.619320      0.251230      0.276353     Biso  1.000000 O
   O52        1.0     0.251230      0.631910      0.443020     Biso  1.000000 O
   O53        1.0     0.368090      0.619320      0.109687     Biso  1.000000 O
   O54        1.0     0.380680      0.748770      0.776353     Biso  1.000000 O
   O55        1.0     0.608550      0.372300      0.975580     Biso  1.000000 O
   O56        1.0     0.627700      0.236250      0.642247     Biso  1.000000 O
   O57        1.0     0.763750      0.391450      0.308913     Biso  1.000000 O
   O58        1.0     0.391450      0.627700      0.475580     Biso  1.000000 O
   O59        1.0     0.372300      0.763750      0.142247     Biso  1.000000 O
   O60        1.0     0.236250      0.608550      0.808913     Biso  1.000000 O
   Zn1        1.0     0.564310      0.287150      0.120130     Biso  1.000000 Zn
   Zn2        1.0     0.712850      0.277160      0.786797     Biso  1.000000 Zn
   Zn3        1.0     0.722840      0.435690      0.453463     Biso  1.000000 Zn
   Zn4        1.0     0.435690      0.712850      0.620130     Biso  1.000000 Zn
   Zn5        1.0     0.287150      0.722840      0.286797     Biso  1.000000 Zn
   Zn6        1.0     0.277160      0.564310      0.953463     Biso  1.000000 Zn
   Zn7        1.0     0.631130      0.277720      0.957190     Biso  1.000000 Zn
   Zn8        1.0     0.722280      0.353410      0.623857     Biso  1.000000 Zn
   Zn9        1.0     0.646590      0.368870      0.290523     Biso  1.000000 Zn
   Zn10       1.0     0.368870      0.722280      0.457190     Biso  1.000000 Zn
   Zn11       1.0     0.277720      0.646590      0.123857     Biso  1.000000 Zn
   Zn12       1.0     0.353410      0.631130      0.790523     Biso  1.000000 Zn
