#======================================================================

# CRYSTAL DATA

#----------------------------------------------------------------------

data_VESTA_phase_1


_pd_phase_name                         'Normal Spinel SQS Structure: A(tetrahe'
_cell_length_a                         5.65685
_cell_length_b                         5.65685
_cell_length_c                         5.65685
_cell_angle_alpha                      60.00000
_cell_angle_beta                       60.00000
_cell_angle_gamma                      60.00000
_symmetry_space_group_name_H-M         'P 1'
_symmetry_Int_Tables_number            1

loop_
_symmetry_equiv_pos_as_xyz
   'x, y, z'

loop_
   _atom_site_label
   _atom_site_occupancy
   _atom_site_fract_x
   _atom_site_fract_y
   _atom_site_fract_z
   _atom_site_adp_type
   _atom_site_B_iso_or_equiv
   _atom_site_type_symbol
   Co1        1.0     0.125000      0.125000      0.125000     Biso  1.000000 Co
   Co2        1.0     0.875000      0.875000      0.875000     Biso  1.000000 Co
   Al1        1.0     0.000000      0.500000      0.500000     Biso  1.000000 Al
   Al2        1.0     0.500000      0.500000      0.500000     Biso  1.000000 Al
   Al3        1.0     0.500000      0.500000      0.000000     Biso  1.000000 Al
   Al4        1.0     0.500000      0.000000      0.500000     Biso  1.000000 Al
   O1         1.0     0.250000      0.750000      0.250000     Biso  1.000000 O
   O2         1.0     0.750000      0.750000      0.250000     Biso  1.000000 O
   O3         1.0     0.250000      0.250000      0.250000     Biso  1.000000 O
   O4         1.0     0.750000      0.250000      0.250000     Biso  1.000000 O
   O5         1.0     0.250000      0.750000      0.750000     Biso  1.000000 O
   O6         1.0     0.750000      0.750000      0.750000     Biso  1.000000 O
   O7         1.0     0.250000      0.250000      0.750000     Biso  1.000000 O
   O8         1.0     0.750000      0.250000      0.750000     Biso  1.000000 O
