#======================================================================

# CRYSTAL DATA

#----------------------------------------------------------------------

data_VESTA_phase_1


_chemical_name_common                  'SnS-Cubic                             '
_cell_length_a                         11.50607
_cell_length_b                         11.50607
_cell_length_c                         11.50607
_cell_angle_alpha                      90
_cell_angle_beta                       90
_cell_angle_gamma                      90
_space_group_name_H-M_alt              'P 1'
_space_group_IT_number                 1

loop_
_space_group_symop_operation_xyz
   'x, y, z'

loop_
   _atom_site_label
   _atom_site_occupancy
   _atom_site_fract_x
   _atom_site_fract_y
   _atom_site_fract_z
   _atom_site_adp_type
   _atom_site_B_iso_or_equiv
   _atom_site_type_symbol
   S1         1.0     0.961878      0.961878      0.961878     Biso  1.000000 S
   S2         1.0     0.538122      0.038122      0.461878     Biso  1.000000 S
   S3         1.0     0.038122      0.461878      0.538122     Biso  1.000000 S
   S4         1.0     0.461878      0.538122      0.038122     Biso  1.000000 S
   S5         1.0     0.048716      0.754343      0.198067     Biso  1.000000 S
   S6         1.0     0.451284      0.245657      0.698067     Biso  1.000000 S
   S7         1.0     0.951284      0.254343      0.301933     Biso  1.000000 S
   S8         1.0     0.548716      0.745657      0.801933     Biso  1.000000 S
   S9         1.0     0.198067      0.048716      0.754343     Biso  1.000000 S
   S10        1.0     0.698067      0.451284      0.245657     Biso  1.000000 S
   S11        1.0     0.301933      0.951284      0.254343     Biso  1.000000 S
   S12        1.0     0.801933      0.548716      0.745657     Biso  1.000000 S
   S13        1.0     0.754343      0.198067      0.048716     Biso  1.000000 S
   S14        1.0     0.245657      0.698067      0.451284     Biso  1.000000 S
   S15        1.0     0.254343      0.301933      0.951284     Biso  1.000000 S
   S16        1.0     0.745657      0.801933      0.548716     Biso  1.000000 S
   S17        1.0     0.545228      0.545228      0.545228     Biso  1.000000 S
   S18        1.0     0.954772      0.454773      0.045228     Biso  1.000000 S
   S19        1.0     0.454773      0.045228      0.954772     Biso  1.000000 S
   S20        1.0     0.045228      0.954772      0.454773     Biso  1.000000 S
   S21        1.0     0.246474      0.801886      0.950663     Biso  1.000000 S
   S22        1.0     0.253526      0.198114      0.450663     Biso  1.000000 S
   S23        1.0     0.753526      0.301886      0.549337     Biso  1.000000 S
   S24        1.0     0.746474      0.698114      0.049337     Biso  1.000000 S
   S25        1.0     0.950663      0.246474      0.801886     Biso  1.000000 S
   S26        1.0     0.450663      0.253526      0.198114     Biso  1.000000 S
   S27        1.0     0.549337      0.753526      0.301886     Biso  1.000000 S
   S28        1.0     0.049337      0.746474      0.698114     Biso  1.000000 S
   S29        1.0     0.801886      0.950663      0.246474     Biso  1.000000 S
   S30        1.0     0.198114      0.450663      0.253526     Biso  1.000000 S
   S31        1.0     0.301886      0.549337      0.753526     Biso  1.000000 S
   S32        1.0     0.698114      0.049337      0.746474     Biso  1.000000 S
   Sn1        1.0     0.775752      0.775752      0.775752     Biso  1.000000 Sn
   Sn2        1.0     0.724248      0.224248      0.275752     Biso  1.000000 Sn
   Sn3        1.0     0.224248      0.275752      0.724248     Biso  1.000000 Sn
   Sn4        1.0     0.275752      0.724248      0.224248     Biso  1.000000 Sn
   Sn5        1.0     0.028979      0.982511      0.229647     Biso  1.000000 Sn
   Sn6        1.0     0.471021      0.017489      0.729647     Biso  1.000000 Sn
   Sn7        1.0     0.971021      0.482511      0.270353     Biso  1.000000 Sn
   Sn8        1.0     0.528979      0.517489      0.770353     Biso  1.000000 Sn
   Sn9        1.0     0.229647      0.028979      0.982511     Biso  1.000000 Sn
   Sn10       1.0     0.729647      0.471021      0.017489     Biso  1.000000 Sn
   Sn11       1.0     0.270353      0.971021      0.482511     Biso  1.000000 Sn
   Sn12       1.0     0.770353      0.528979      0.517489     Biso  1.000000 Sn
   Sn13       1.0     0.982511      0.229647      0.028979     Biso  1.000000 Sn
   Sn14       1.0     0.017489      0.729647      0.471021     Biso  1.000000 Sn
   Sn15       1.0     0.482511      0.270353      0.971021     Biso  1.000000 Sn
   Sn16       1.0     0.517489      0.770353      0.528979     Biso  1.000000 Sn
   Sn17       1.0     0.223172      0.223172      0.223172     Biso  1.000000 Sn
   Sn18       1.0     0.276828      0.776828      0.723172     Biso  1.000000 Sn
   Sn19       1.0     0.776828      0.723172      0.276828     Biso  1.000000 Sn
   Sn20       1.0     0.723172      0.276828      0.776828     Biso  1.000000 Sn
   Sn21       1.0     0.022498      0.740830      0.971506     Biso  1.000000 Sn
   Sn22       1.0     0.477502      0.259170      0.471506     Biso  1.000000 Sn
   Sn23       1.0     0.977502      0.240830      0.528494     Biso  1.000000 Sn
   Sn24       1.0     0.522498      0.759170      0.028494     Biso  1.000000 Sn
   Sn25       1.0     0.971506      0.022498      0.740830     Biso  1.000000 Sn
   Sn26       1.0     0.471506      0.477502      0.259170     Biso  1.000000 Sn
   Sn27       1.0     0.528494      0.977502      0.240830     Biso  1.000000 Sn
   Sn28       1.0     0.028494      0.522498      0.759170     Biso  1.000000 Sn
   Sn29       1.0     0.740830      0.971506      0.022498     Biso  1.000000 Sn
   Sn30       1.0     0.259170      0.471506      0.477502     Biso  1.000000 Sn
   Sn31       1.0     0.240830      0.528494      0.977502     Biso  1.000000 Sn
   Sn32       1.0     0.759170      0.028494      0.522498     Biso  1.000000 Sn
