#======================================================================

# CRYSTAL DATA

#----------------------------------------------------------------------

data_VESTA_phase_1


_pd_phase_name                         '	'Cu4 Sn2 Zn2 S8'
_cell_length_a                         7.54400
_cell_length_b                         6.51900
_cell_length_c                         6.22600
_cell_angle_alpha                      90
_cell_angle_beta                       90.03956
_cell_angle_gamma                      90
_symmetry_space_group_name_H-M         'P n'
_symmetry_Int_Tables_number            7

loop_
_symmetry_equiv_pos_as_xyz
   'x, y, z'
   'x+1/2, -y, z+1/2'

loop_
   _atom_site_label
   _atom_site_occupancy
   _atom_site_fract_x
   _atom_site_fract_y
   _atom_site_fract_z
   _atom_site_adp_type
   _atom_site_B_iso_or_equiv
   _atom_site_type_symbol
   Cu1        1.0    -0.000400      0.166300      0.999000     Biso  1.000000 Cu
   Cu1        1.0    -0.249800      0.665900     -0.002000     Biso  1.000000 Cu
   Sn1        1.0    -0.499900      0.167800     -0.000100     Biso  1.000000 Sn
   Zn1        1.0    -0.749900      0.667600      0.000000     Biso  1.000000 Zn
   S1         1.0    -0.012100      0.840400      0.126900     Biso  1.000000 S
   S1         1.0    -0.487600      0.837000      0.134200     Biso  1.000000 S
   S1         1.0    -0.753600      0.320900      0.133700     Biso  1.000000 S
   S1         1.0    -0.246100      0.334500      0.110800     Biso  1.000000 S
