#======================================================================

# CRYSTAL DATA

#----------------------------------------------------------------------

data_VESTA_phase_1


_pd_phase_name                         '	'Cu4 Sn2 Zn2 S8'
_cell_length_a                         7.50300
_cell_length_b                         6.54700
_cell_length_c                         6.22600
_cell_angle_alpha                      90
_cell_angle_beta                       90
_cell_angle_gamma                      90
_symmetry_space_group_name_H-M         'P m n 21'
_symmetry_Int_Tables_number            31

loop_
_symmetry_equiv_pos_as_xyz
   'x, y, z'
   '-x+1/2, -y, z+1/2'
   'x+1/2, -y, z+1/2'
   '-x, y, z'

loop_
   _atom_site_label
   _atom_site_occupancy
   _atom_site_fract_x
   _atom_site_fract_y
   _atom_site_fract_z
   _atom_site_adp_type
   _atom_site_B_iso_or_equiv
   _atom_site_type_symbol
   Cu1        1.0     0.749500      0.332100      0.997300     Biso  1.000000 Cu
   Sn1        1.0     0.500000      0.834800      0.000100     Biso  1.000000 Sn
   Zn1        1.0     0.000000      0.835800      1.000000     Biso  1.000000 Zn
   S1         1.0     0.000000      0.183100      0.127800     Biso  1.000000 S
   S1         1.0     0.500000      0.171900      0.111200     Biso  1.000000 S
   S1         1.0     0.742700      0.655200      0.133500     Biso  1.000000 S
