#======================================================================

# CRYSTAL DATA

#----------------------------------------------------------------------

data_VESTA_phase_1


_pd_phase_name                         'Cs2Sb8S13                           '
_cell_length_a                         15.25115
_cell_length_b                         11.34392
_cell_length_c                         8.22909
_cell_angle_alpha                      71.61362
_cell_angle_beta                       102.34969
_cell_angle_gamma                      93.90450
_symmetry_space_group_name_H-M         'P 1'
_symmetry_Int_Tables_number            1

loop_
_symmetry_equiv_pos_as_xyz
   'x, y, z'

loop_
   _atom_site_label
   _atom_site_occupancy
   _atom_site_fract_x
   _atom_site_fract_y
   _atom_site_fract_z
   _atom_site_adp_type
   _atom_site_B_iso_or_equiv
   _atom_site_type_symbol
   Sb1        1.0     0.724003      0.028485      0.886674     Biso  1.000000 Sb
   Sb2        1.0     0.275997      0.971515      0.113326     Biso  1.000000 Sb
   Sb3        1.0     0.574818      0.217915      0.493280     Biso  1.000000 Sb
   Sb4        1.0     0.425182      0.782085      0.506720     Biso  1.000000 Sb
   Sb5        1.0     0.582466      0.986047      0.252007     Biso  1.000000 Sb
   Sb6        1.0     0.417534      0.013953      0.747993     Biso  1.000000 Sb
   Sb7        1.0     0.585043      0.468850      0.715125     Biso  1.000000 Sb
   Sb8        1.0     0.414957      0.531150      0.284875     Biso  1.000000 Sb
   Sb9        1.0     0.445273      0.277085      0.023866     Biso  1.000000 Sb
   Sb10       1.0     0.554727      0.722915      0.976134     Biso  1.000000 Sb
   Sb11       1.0     0.724391      0.802514      0.623595     Biso  1.000000 Sb
   Sb12       1.0     0.275609      0.197486      0.376405     Biso  1.000000 Sb
   Sb13       1.0     0.067007      0.371559      0.163079     Biso  1.000000 Sb
   Sb14       1.0     0.932993      0.628441      0.836922     Biso  1.000000 Sb
   Sb15       1.0     0.809603      0.323354      0.986308     Biso  1.000000 Sb
   Sb16       1.0     0.190397      0.676646      0.013692     Biso  1.000000 Sb
   S1         1.0     0.554649      0.386611      0.206890     Biso  1.000000 S
   S2         1.0     0.445351      0.613389      0.793110     Biso  1.000000 S
   S3         1.0     0.561557      0.154516      0.965431     Biso  1.000000 S
   S4         1.0     0.438443      0.845484      0.034569     Biso  1.000000 S
   S5         1.0     0.692763      0.345000      0.626379     Biso  1.000000 S
   S6         1.0     0.307237      0.655000      0.373621     Biso  1.000000 S
   S7         1.0     0.434990      0.361102      0.559069     Biso  1.000000 S
   S8         1.0     0.565010      0.638898      0.440931     Biso  1.000000 S
   S9         1.0     0.693012      0.110045      0.409315     Biso  1.000000 S
   S10        1.0     0.306988      0.889955      0.590685     Biso  1.000000 S
   S11        1.0     0.425474      0.108463      0.282151     Biso  1.000000 S
   S12        1.0     0.574526      0.891537      0.717849     Biso  1.000000 S
   S13        1.0     0.087953      0.577612      0.213303     Biso  1.000000 S
   S14        1.0     0.912047      0.422388      0.786697     Biso  1.000000 S
   S15        1.0     0.082632      0.641795      0.755900     Biso  1.000000 S
   S16        1.0     0.917368      0.358205      0.244100     Biso  1.000000 S
   S17        1.0     0.719220      0.598390      0.849710     Biso  1.000000 S
   S18        1.0     0.280780      0.401610      0.150290     Biso  1.000000 S
   S19        1.0     0.696806      0.880091      0.163572     Biso  1.000000 S
   S20        1.0     0.303194      0.119909      0.836428     Biso  1.000000 S
   S21        1.0     0.867696      0.756647      0.540709     Biso  1.000000 S
   S22        1.0     0.132304      0.243353      0.459291     Biso  1.000000 S
   S23        1.0     0.824433      0.881110      0.850151     Biso  1.000000 S
   S24        1.0     0.175567      0.118890      0.149849     Biso  1.000000 S
   S25        1.0     0.866433      0.115150      0.028790     Biso  1.000000 S
   S26        1.0     0.133567      0.884850      0.971210     Biso  1.000000 S
   Cs1        1.0     0.051125      0.868302      0.347694     Biso  1.000000 Cs
   Cs2        1.0     0.948875      0.131698      0.652306     Biso  1.000000 Cs
   Cs3        1.0     0.771044      0.562696      0.302427     Biso  1.000000 Cs
   Cs4        1.0     0.228956      0.437304      0.697573     Biso  1.000000 Cs
