#======================================================================

# CRYSTAL DATA

#----------------------------------------------------------------------

data_VESTA_phase_1


_pd_phase_name                         '(CH3NH3)2Sb8S13                '
_cell_length_a                         15.89237
_cell_length_b                         11.54890
_cell_length_c                         8.13227
_cell_angle_alpha                      70.23275
_cell_angle_beta                       74.44903
_cell_angle_gamma                      81.63543
_symmetry_space_group_name_H-M         'P 1'
_symmetry_Int_Tables_number            1

loop_
_symmetry_equiv_pos_as_xyz
   'x, y, z'

loop_
   _atom_site_label
   _atom_site_occupancy
   _atom_site_fract_x
   _atom_site_fract_y
   _atom_site_fract_z
   _atom_site_adp_type
   _atom_site_B_iso_or_equiv
   _atom_site_type_symbol
   Sb1        1.0     0.285214      0.048832      0.867785     Biso  1.000000 Sb
   Sb2        1.0     0.711072      0.962723      0.125868     Biso  1.000000 Sb
   Sb3        1.0     0.425406      0.237771      0.494227     Biso  1.000000 Sb
   Sb4        1.0     0.573570      0.772496      0.502806     Biso  1.000000 Sb
   Sb5        1.0     0.412821      0.003721      0.258152     Biso  1.000000 Sb
   Sb6        1.0     0.582801      0.008232      0.736751     Biso  1.000000 Sb
   Sb7        1.0     0.414503      0.480859      0.727982     Biso  1.000000 Sb
   Sb8        1.0     0.583730      0.530084      0.273318     Biso  1.000000 Sb
   Sb9        1.0     0.549063      0.278687      0.010731     Biso  1.000000 Sb
   Sb10       1.0     0.446291      0.733342      0.984585     Biso  1.000000 Sb
   Sb11       1.0     0.283728      0.808814      0.638619     Biso  1.000000 Sb
   Sb12       1.0     0.713674      0.201210      0.355446     Biso  1.000000 Sb
   Sb13       1.0     0.057161      0.663494      0.856051     Biso  1.000000 Sb
   Sb14       1.0     0.935917      0.345689      0.140850     Biso  1.000000 Sb
   Sb15       1.0     0.186676      0.337867      0.998227     Biso  1.000000 Sb
   Sb16       1.0     0.807140      0.672109      0.001404     Biso  1.000000 Sb
   S1         1.0     0.444279      0.400795      0.195914     Biso  1.000000 S
   S2         1.0     0.553166      0.611445      0.802752     Biso  1.000000 S
   S3         1.0     0.438104      0.167402      0.959422     Biso  1.000000 S
   S4         1.0     0.557627      0.844740      0.035686     Biso  1.000000 S
   S5         1.0     0.310794      0.382475      0.628638     Biso  1.000000 S
   S6         1.0     0.688555      0.624641      0.377114     Biso  1.000000 S
   S7         1.0     0.560305      0.355055      0.548208     Biso  1.000000 S
   S8         1.0     0.437999      0.653194      0.449187     Biso  1.000000 S
   S9         1.0     0.307303      0.137945      0.417487     Biso  1.000000 S
   S10        1.0     0.689706      0.875308      0.577086     Biso  1.000000 S
   S11        1.0     0.564780      0.114249      0.284709     Biso  1.000000 S
   S12        1.0     0.431355      0.896723      0.709018     Biso  1.000000 S
   S13        1.0     0.087750      0.460916      0.806296     Biso  1.000000 S
   S14        1.0     0.907237      0.548824      0.190190     Biso  1.000000 S
   S15        1.0     0.061172      0.325517      0.274786     Biso  1.000000 S
   S16        1.0     0.931742      0.685103      0.722482     Biso  1.000000 S
   S17        1.0     0.285900      0.610048      0.877402     Biso  1.000000 S
   S18        1.0     0.714247      0.402972      0.119887     Biso  1.000000 S
   S19        1.0     0.304575      0.911964      0.167957     Biso  1.000000 S
   S20        1.0     0.691603      0.099954      0.825611     Biso  1.000000 S
   S21        1.0     0.143756      0.782948      0.554928     Biso  1.000000 S
   S22        1.0     0.851738      0.224330      0.441334     Biso  1.000000 S
   S23        1.0     0.190139      0.896645      0.872252     Biso  1.000000 S
   S24        1.0     0.806544      0.114713      0.119267     Biso  1.000000 S
   S25        1.0     0.140369      0.153226      0.974954     Biso  1.000000 S
   S26        1.0     0.855311      0.856663      0.022279     Biso  1.000000 S
   N1         1.0     0.241030      0.601225      0.323962     Biso  1.000000 N
   N2         1.0     0.758015      0.402571      0.699183     Biso  1.000000 N
   N3         1.0     0.094799      0.069677      0.559725     Biso  1.000000 N
   N4         1.0     0.903340      0.938820      0.427076     Biso  1.000000 N
   C1         1.0     0.174021      0.525868      0.322574     Biso  1.000000 C
   C2         1.0     0.850883      0.417094      0.683677     Biso  1.000000 C
   C3         1.0     0.016739      0.074409      0.705408     Biso  1.000000 C
   C4         1.0     0.981647      0.930938      0.283518     Biso  1.000000 C
   H1         1.0     0.731878      0.474200      0.601900     Biso  1.000000 H
   H2         1.0     0.721654      0.401570      0.827698     Biso  1.000000 H
   H3         1.0     0.888815      0.416928      0.549203     Biso  1.000000 H
   H4         1.0     0.874006      0.339817      0.787952     Biso  1.000000 H
   H5         1.0     0.857404      0.504745      0.703388     Biso  1.000000 H
   H6         1.0     0.751153      0.319655      0.680853     Biso  1.000000 H
   H7         1.0     0.133053      0.492159      0.459683     Biso  1.000000 H
   H8         1.0     0.207293      0.447110      0.279136     Biso  1.000000 H
   H9         1.0     0.133969      0.581543      0.229080     Biso  1.000000 H
   H10        1.0     0.282036      0.544445      0.406216     Biso  1.000000 H
   H11        1.0     0.212401      0.671880      0.380006     Biso  1.000000 H
   H12        1.0     0.278208      0.639520      0.194862     Biso  1.000000 H
   H13        1.0     0.012398      0.985470      0.813101     Biso  1.000000 H
   H14        1.0     0.957852      0.095097      0.651194     Biso  1.000000 H
   H15        1.0     0.022874      0.147264      0.759549     Biso  1.000000 H
   H16        1.0     0.102918      0.985196      0.533223     Biso  1.000000 H
   H17        1.0     0.151982      0.073921      0.596273     Biso  1.000000 H
   H18        1.0     0.090873      0.144789      0.442494     Biso  1.000000 H
   H19        1.0     0.983796      0.015924      0.168997     Biso  1.000000 H
   H20        1.0     0.977674      0.851886      0.240200     Biso  1.000000 H
   H21        1.0     0.040708      0.918040      0.335435     Biso  1.000000 H
   H22        1.0     0.895259      0.024593      0.450150     Biso  1.000000 H
   H23        1.0     0.906260      0.865408      0.546558     Biso  1.000000 H
   H24        1.0     0.846438      0.933854      0.390219     Biso  1.000000 H
