#======================================================================

# CRYSTAL DATA

#----------------------------------------------------------------------

data_VESTA_phase_1


_pd_phase_name                         'CPO27/MOF74 metal variation - PBEsol  '
_cell_length_a                         25.67507
_cell_length_b                         25.67507
_cell_length_c                         6.71227
_cell_angle_alpha                      90
_cell_angle_beta                       90
_cell_angle_gamma                      120
_symmetry_space_group_name_H-M         'P 1'
_symmetry_Int_Tables_number            1

loop_
_symmetry_equiv_pos_as_xyz
   'x, y, z'

loop_
   _atom_site_label
   _atom_site_occupancy
   _atom_site_fract_x
   _atom_site_fract_y
   _atom_site_fract_z
   _atom_site_adp_type
   _atom_site_B_iso_or_equiv
   _atom_site_type_symbol
   C1         1.0     0.418157      0.402489      0.258419     Biso  1.000000 C
   C2         1.0     0.581843      0.597511      0.741581     Biso  1.000000 C
   C3         1.0     0.597511      0.015668      0.258419     Biso  1.000000 C
   C4         1.0     0.402489      0.984332      0.741581     Biso  1.000000 C
   C5         1.0     0.984332      0.581843      0.258419     Biso  1.000000 C
   C6         1.0     0.015668      0.418157      0.741581     Biso  1.000000 C
   C7         1.0     0.084824      0.735822      0.591752     Biso  1.000000 C
   C8         1.0     0.248510      0.930844      0.074915     Biso  1.000000 C
   C9         1.0     0.264178      0.349001      0.591752     Biso  1.000000 C
   C10        1.0     0.069156      0.317665      0.074915     Biso  1.000000 C
   C11        1.0     0.650999      0.915176      0.591752     Biso  1.000000 C
   C12        1.0     0.682334      0.751490      0.074915     Biso  1.000000 C
   C13        1.0     0.751490      0.069156      0.925085     Biso  1.000000 C
   C14        1.0     0.915176      0.264178      0.408248     Biso  1.000000 C
   C15        1.0     0.930844      0.682334      0.925085     Biso  1.000000 C
   C16        1.0     0.735822      0.650999      0.408248     Biso  1.000000 C
   C17        1.0     0.317665      0.248510      0.925085     Biso  1.000000 C
   C18        1.0     0.349001      0.084824      0.408248     Biso  1.000000 C
   C19        1.0     0.458278      0.452550      0.121436     Biso  1.000000 C
   C20        1.0     0.541722      0.547449      0.878564     Biso  1.000000 C
   C21        1.0     0.547449      0.005727      0.121436     Biso  1.000000 C
   C22        1.0     0.452550      0.994273      0.878564     Biso  1.000000 C
   C23        1.0     0.994273      0.541722      0.121436     Biso  1.000000 C
   C24        1.0     0.005727      0.458278      0.878564     Biso  1.000000 C
   C25        1.0     0.124944      0.785884      0.454769     Biso  1.000000 C
   C26        1.0     0.208389      0.880783      0.211897     Biso  1.000000 C
   C27        1.0     0.214116      0.339061      0.454769     Biso  1.000000 C
   C28        1.0     0.119217      0.327606      0.211897     Biso  1.000000 C
   C29        1.0     0.660939      0.875056      0.454769     Biso  1.000000 C
   C30        1.0     0.672394      0.791611      0.211897     Biso  1.000000 C
   C31        1.0     0.791611      0.119217      0.788103     Biso  1.000000 C
   C32        1.0     0.875056      0.214116      0.545231     Biso  1.000000 C
   C33        1.0     0.880783      0.672394      0.788103     Biso  1.000000 C
   C34        1.0     0.785884      0.660939      0.545231     Biso  1.000000 C
   C35        1.0     0.327606      0.208389      0.788103     Biso  1.000000 C
   C36        1.0     0.339061      0.124944      0.545231     Biso  1.000000 C
   C37        1.0     0.555805      0.544179      0.081388     Biso  1.000000 C
   C38        1.0     0.444195      0.455821      0.918612     Biso  1.000000 C
   C39        1.0     0.455821      0.011626      0.081388     Biso  1.000000 C
   C40        1.0     0.544179      0.988374      0.918612     Biso  1.000000 C
   C41        1.0     0.988374      0.444195      0.081388     Biso  1.000000 C
   C42        1.0     0.011626      0.555805      0.918612     Biso  1.000000 C
   C43        1.0     0.222472      0.877513      0.414721     Biso  1.000000 C
   C44        1.0     0.110861      0.789154      0.251945     Biso  1.000000 C
   C45        1.0     0.122487      0.344959      0.414721     Biso  1.000000 C
   C46        1.0     0.210846      0.321707      0.251945     Biso  1.000000 C
   C47        1.0     0.655041      0.777528      0.414721     Biso  1.000000 C
   C48        1.0     0.678293      0.889139      0.251945     Biso  1.000000 C
   C49        1.0     0.889139      0.210846      0.748055     Biso  1.000000 C
   C50        1.0     0.777528      0.122487      0.585279     Biso  1.000000 C
   C51        1.0     0.789154      0.678293      0.748055     Biso  1.000000 C
   C52        1.0     0.877513      0.655041      0.585279     Biso  1.000000 C
   C53        1.0     0.321707      0.110861      0.748055     Biso  1.000000 C
   C54        1.0     0.344959      0.222472      0.585279     Biso  1.000000 C
   C55        1.0     0.513594      0.496683      0.196991     Biso  1.000000 C
   C56        1.0     0.486406      0.503317      0.803009     Biso  1.000000 C
   C57        1.0     0.503317      0.016911      0.196991     Biso  1.000000 C
   C58        1.0     0.496683      0.983089      0.803009     Biso  1.000000 C
   C59        1.0     0.983089      0.486406      0.196991     Biso  1.000000 C
   C60        1.0     0.016911      0.513594      0.803009     Biso  1.000000 C
   C61        1.0     0.180261      0.830016      0.530324     Biso  1.000000 C
   C62        1.0     0.153073      0.836650      0.136342     Biso  1.000000 C
   C63        1.0     0.169984      0.350244      0.530324     Biso  1.000000 C
   C64        1.0     0.163350      0.316422      0.136342     Biso  1.000000 C
   C65        1.0     0.649755      0.819739      0.530324     Biso  1.000000 C
   C66        1.0     0.683578      0.846927      0.136342     Biso  1.000000 C
   C67        1.0     0.846927      0.163350      0.863658     Biso  1.000000 C
   C68        1.0     0.819739      0.169984      0.469676     Biso  1.000000 C
   C69        1.0     0.836650      0.683578      0.863658     Biso  1.000000 C
   C70        1.0     0.830016      0.649755      0.469676     Biso  1.000000 C
   C71        1.0     0.316422      0.153073      0.863658     Biso  1.000000 C
   C72        1.0     0.350244      0.180261      0.469676     Biso  1.000000 C
   H1         1.0     0.524599      0.493685      0.352423     Biso  1.000000 H
   H2         1.0     0.475401      0.506315      0.647577     Biso  1.000000 H
   H3         1.0     0.506315      0.030914      0.352423     Biso  1.000000 H
   H4         1.0     0.493685      0.969086      0.647577     Biso  1.000000 H
   H5         1.0     0.969086      0.475401      0.352423     Biso  1.000000 H
   H6         1.0     0.030914      0.524599      0.647577     Biso  1.000000 H
   H7         1.0     0.191266      0.827018      0.685756     Biso  1.000000 H
   H8         1.0     0.142068      0.839648      0.980911     Biso  1.000000 H
   H9         1.0     0.172982      0.364247      0.685756     Biso  1.000000 H
   H10        1.0     0.160351      0.302419      0.980911     Biso  1.000000 H
   H11        1.0     0.635752      0.808734      0.685756     Biso  1.000000 H
   H12        1.0     0.697581      0.857932      0.980911     Biso  1.000000 H
   H13        1.0     0.857932      0.160351      0.019089     Biso  1.000000 H
   H14        1.0     0.808734      0.172982      0.314244     Biso  1.000000 H
   H15        1.0     0.839648      0.697581      0.019089     Biso  1.000000 H
   H16        1.0     0.827018      0.635752      0.314244     Biso  1.000000 H
   H17        1.0     0.302419      0.142068      0.019089     Biso  1.000000 H
   H18        1.0     0.364247      0.191266      0.314244     Biso  1.000000 H
   Ge1        1.0     0.595021      0.652585      0.321421     Biso  1.000000 Ge
   Ge2        1.0     0.404979      0.347415      0.678579     Biso  1.000000 Ge
   Ge3        1.0     0.347415      0.942436      0.321421     Biso  1.000000 Ge
   Ge4        1.0     0.652585      0.057564      0.678579     Biso  1.000000 Ge
   Ge5        1.0     0.057564      0.404979      0.321421     Biso  1.000000 Ge
   Ge6        1.0     0.942436      0.595021      0.678579     Biso  1.000000 Ge
   Ge7        1.0     0.261687      0.985918      0.654754     Biso  1.000000 Ge
   Ge8        1.0     0.071646      0.680749      0.011912     Biso  1.000000 Ge
   Ge9        1.0     0.014082      0.275769      0.654754     Biso  1.000000 Ge
   Ge10       1.0     0.319251      0.390897      0.011912     Biso  1.000000 Ge
   Ge11       1.0     0.724231      0.738313      0.654754     Biso  1.000000 Ge
   Ge12       1.0     0.609103      0.928354      0.011912     Biso  1.000000 Ge
   Ge13       1.0     0.928354      0.319251      0.988087     Biso  1.000000 Ge
   Ge14       1.0     0.738313      0.014082      0.345246     Biso  1.000000 Ge
   Ge15       1.0     0.680749      0.609103      0.988087     Biso  1.000000 Ge
   Ge16       1.0     0.985918      0.724231      0.345246     Biso  1.000000 Ge
   Ge17       1.0     0.390897      0.071646      0.988087     Biso  1.000000 Ge
   Ge18       1.0     0.275769      0.261687      0.345246     Biso  1.000000 Ge
   O1         1.0     0.436368      0.404857      0.436889     Biso  1.000000 O
   O2         1.0     0.563632      0.595143      0.563111     Biso  1.000000 O
   O3         1.0     0.595143      0.031511      0.436889     Biso  1.000000 O
   O4         1.0     0.404857      0.968489      0.563111     Biso  1.000000 O
   O5         1.0     0.968489      0.563632      0.436889     Biso  1.000000 O
   O6         1.0     0.031511      0.436368      0.563111     Biso  1.000000 O
   O7         1.0     0.103034      0.738190      0.770222     Biso  1.000000 O
   O8         1.0     0.230299      0.928477      0.896444     Biso  1.000000 O
   O9         1.0     0.261810      0.364845      0.770222     Biso  1.000000 O
   O10        1.0     0.071523      0.301822      0.896444     Biso  1.000000 O
   O11        1.0     0.635155      0.896965      0.770222     Biso  1.000000 O
   O12        1.0     0.698178      0.769701      0.896444     Biso  1.000000 O
   O13        1.0     0.769701      0.071523      0.103555     Biso  1.000000 O
   O14        1.0     0.896965      0.261810      0.229778     Biso  1.000000 O
   O15        1.0     0.928477      0.698178      0.103555     Biso  1.000000 O
   O16        1.0     0.738190      0.635155      0.229778     Biso  1.000000 O
   O17        1.0     0.301822      0.230299      0.103555     Biso  1.000000 O
   O18        1.0     0.364845      0.103034      0.229778     Biso  1.000000 O
   O19        1.0     0.368107      0.360290      0.194948     Biso  1.000000 O
   O20        1.0     0.631893      0.639710      0.805052     Biso  1.000000 O
   O21        1.0     0.639710      0.007817      0.194948     Biso  1.000000 O
   O22        1.0     0.360290      0.992183      0.805052     Biso  1.000000 O
   O23        1.0     0.992183      0.631893      0.194948     Biso  1.000000 O
   O24        1.0     0.007817      0.368107      0.805052     Biso  1.000000 O
   O25        1.0     0.034773      0.693623      0.528281     Biso  1.000000 O
   O26        1.0     0.298560      0.973044      0.138385     Biso  1.000000 O
   O27        1.0     0.306377      0.341151      0.528281     Biso  1.000000 O
   O28        1.0     0.026956      0.325516      0.138385     Biso  1.000000 O
   O29        1.0     0.658849      0.965226      0.528281     Biso  1.000000 O
   O30        1.0     0.674484      0.701440      0.138385     Biso  1.000000 O
   O31        1.0     0.701440      0.026956      0.861615     Biso  1.000000 O
   O32        1.0     0.965226      0.306377      0.471719     Biso  1.000000 O
   O33        1.0     0.973044      0.674484      0.861615     Biso  1.000000 O
   O34        1.0     0.693623      0.658849      0.471719     Biso  1.000000 O
   O35        1.0     0.325516      0.298560      0.861615     Biso  1.000000 O
   O36        1.0     0.341151      0.034773      0.471719     Biso  1.000000 O
   O37        1.0     0.608358      0.585200      0.171281     Biso  1.000000 O
   O38        1.0     0.391642      0.414800      0.828719     Biso  1.000000 O
   O39        1.0     0.414800      0.023158      0.171281     Biso  1.000000 O
   O40        1.0     0.585200      0.976842      0.828719     Biso  1.000000 O
   O41        1.0     0.976842      0.391642      0.171281     Biso  1.000000 O
   O42        1.0     0.023158      0.608358      0.828719     Biso  1.000000 O
   O43        1.0     0.275024      0.918533      0.504614     Biso  1.000000 O
   O44        1.0     0.058309      0.748134      0.162052     Biso  1.000000 O
   O45        1.0     0.081467      0.356492      0.504614     Biso  1.000000 O
   O46        1.0     0.251866      0.310175      0.162052     Biso  1.000000 O
   O47        1.0     0.643508      0.724975      0.504614     Biso  1.000000 O
   O48        1.0     0.689825      0.941691      0.162052     Biso  1.000000 O
   O49        1.0     0.941691      0.251866      0.837948     Biso  1.000000 O
   O50        1.0     0.724975      0.081467      0.495386     Biso  1.000000 O
   O51        1.0     0.748134      0.689825      0.837948     Biso  1.000000 O
   O52        1.0     0.918533      0.643508      0.495386     Biso  1.000000 O
   O53        1.0     0.310175      0.058309      0.837948     Biso  1.000000 O
   O54        1.0     0.356492      0.275024      0.495386     Biso  1.000000 O
