#======================================================================

# CRYSTAL DATA

#----------------------------------------------------------------------

data_VESTA_phase_1


_pd_phase_name                         'CPO27/MOF74 metal variation - PBEsol  '
_cell_length_a                         26.97556
_cell_length_b                         26.97556
_cell_length_c                         6.65827
_cell_angle_alpha                      90
_cell_angle_beta                       90
_cell_angle_gamma                      120
_symmetry_space_group_name_H-M         'P 1'
_symmetry_Int_Tables_number            1

loop_
_symmetry_equiv_pos_as_xyz
   'x, y, z'

loop_
   _atom_site_label
   _atom_site_occupancy
   _atom_site_fract_x
   _atom_site_fract_y
   _atom_site_fract_z
   _atom_site_adp_type
   _atom_site_B_iso_or_equiv
   _atom_site_type_symbol
   C1         1.0     0.424610      0.406000      0.264938     Biso  1.000000 C
   C2         1.0     0.575389      0.594000      0.735062     Biso  1.000000 C
   C3         1.0     0.594000      0.018610      0.264938     Biso  1.000000 C
   C4         1.0     0.406000      0.981389      0.735062     Biso  1.000000 C
   C5         1.0     0.981389      0.575389      0.264938     Biso  1.000000 C
   C6         1.0     0.018610      0.424610      0.735062     Biso  1.000000 C
   C7         1.0     0.091277      0.739333      0.598272     Biso  1.000000 C
   C8         1.0     0.242056      0.927333      0.068395     Biso  1.000000 C
   C9         1.0     0.260667      0.351944      0.598272     Biso  1.000000 C
   C10        1.0     0.072667      0.314723      0.068395     Biso  1.000000 C
   C11        1.0     0.648056      0.908723      0.598272     Biso  1.000000 C
   C12        1.0     0.685277      0.757944      0.068395     Biso  1.000000 C
   C13        1.0     0.757944      0.072667      0.931605     Biso  1.000000 C
   C14        1.0     0.908723      0.260667      0.401728     Biso  1.000000 C
   C15        1.0     0.927333      0.685277      0.931605     Biso  1.000000 C
   C16        1.0     0.739333      0.648056      0.401728     Biso  1.000000 C
   C17        1.0     0.314723      0.242056      0.931605     Biso  1.000000 C
   C18        1.0     0.351944      0.091277      0.401728     Biso  1.000000 C
   C19        1.0     0.461554      0.454059      0.124011     Biso  1.000000 C
   C20        1.0     0.538446      0.545941      0.875989     Biso  1.000000 C
   C21        1.0     0.545941      0.007495      0.124011     Biso  1.000000 C
   C22        1.0     0.454059      0.992504      0.875989     Biso  1.000000 C
   C23        1.0     0.992504      0.538446      0.124011     Biso  1.000000 C
   C24        1.0     0.007495      0.461554      0.875989     Biso  1.000000 C
   C25        1.0     0.128221      0.787392      0.457345     Biso  1.000000 C
   C26        1.0     0.205113      0.879275      0.209322     Biso  1.000000 C
   C27        1.0     0.212608      0.340829      0.457345     Biso  1.000000 C
   C28        1.0     0.120725      0.325838      0.209322     Biso  1.000000 C
   C29        1.0     0.659171      0.871779      0.457345     Biso  1.000000 C
   C30        1.0     0.674162      0.794887      0.209322     Biso  1.000000 C
   C31        1.0     0.794887      0.120725      0.790678     Biso  1.000000 C
   C32        1.0     0.871779      0.212608      0.542655     Biso  1.000000 C
   C33        1.0     0.879275      0.674162      0.790678     Biso  1.000000 C
   C34        1.0     0.787392      0.659171      0.542655     Biso  1.000000 C
   C35        1.0     0.325838      0.205113      0.790678     Biso  1.000000 C
   C36        1.0     0.340829      0.128221      0.542655     Biso  1.000000 C
   C37        1.0     0.554673      0.541348      0.075894     Biso  1.000000 C
   C38        1.0     0.445327      0.458652      0.924106     Biso  1.000000 C
   C39        1.0     0.458652      0.013325      0.075894     Biso  1.000000 C
   C40        1.0     0.541348      0.986675      0.924106     Biso  1.000000 C
   C41        1.0     0.986675      0.445327      0.075894     Biso  1.000000 C
   C42        1.0     0.013325      0.554673      0.924106     Biso  1.000000 C
   C43        1.0     0.221339      0.874681      0.409227     Biso  1.000000 C
   C44        1.0     0.111994      0.791986      0.257439     Biso  1.000000 C
   C45        1.0     0.125319      0.346658      0.409227     Biso  1.000000 C
   C46        1.0     0.208014      0.320008      0.257439     Biso  1.000000 C
   C47        1.0     0.653342      0.778661      0.409227     Biso  1.000000 C
   C48        1.0     0.679992      0.888006      0.257439     Biso  1.000000 C
   C49        1.0     0.888006      0.208014      0.742561     Biso  1.000000 C
   C50        1.0     0.778661      0.125319      0.590772     Biso  1.000000 C
   C51        1.0     0.791986      0.679992      0.742561     Biso  1.000000 C
   C52        1.0     0.874681      0.653342      0.590772     Biso  1.000000 C
   C53        1.0     0.320008      0.111994      0.742561     Biso  1.000000 C
   C54        1.0     0.346658      0.221339      0.590772     Biso  1.000000 C
   C55        1.0     0.515387      0.495535      0.193908     Biso  1.000000 C
   C56        1.0     0.484613      0.504465      0.806092     Biso  1.000000 C
   C57        1.0     0.504465      0.019852      0.193908     Biso  1.000000 C
   C58        1.0     0.495535      0.980148      0.806092     Biso  1.000000 C
   C59        1.0     0.980148      0.484613      0.193908     Biso  1.000000 C
   C60        1.0     0.019852      0.515387      0.806092     Biso  1.000000 C
   C61        1.0     0.182054      0.828868      0.527241     Biso  1.000000 C
   C62        1.0     0.151280      0.837798      0.139426     Biso  1.000000 C
   C63        1.0     0.171132      0.353185      0.527241     Biso  1.000000 C
   C64        1.0     0.162202      0.313481      0.139426     Biso  1.000000 C
   C65        1.0     0.646815      0.817946      0.527241     Biso  1.000000 C
   C66        1.0     0.686518      0.848720      0.139426     Biso  1.000000 C
   C67        1.0     0.848720      0.162202      0.860574     Biso  1.000000 C
   C68        1.0     0.817946      0.171132      0.472759     Biso  1.000000 C
   C69        1.0     0.837798      0.686518      0.860574     Biso  1.000000 C
   C70        1.0     0.828868      0.646815      0.472759     Biso  1.000000 C
   C71        1.0     0.313481      0.151280      0.860574     Biso  1.000000 C
   C72        1.0     0.353185      0.182054      0.472759     Biso  1.000000 C
   H1         1.0     0.527314      0.492267      0.348312     Biso  1.000000 H
   H2         1.0     0.472685      0.507733      0.651688     Biso  1.000000 H
   H3         1.0     0.507733      0.035047      0.348312     Biso  1.000000 H
   H4         1.0     0.492267      0.964953      0.651688     Biso  1.000000 H
   H5         1.0     0.964953      0.472685      0.348312     Biso  1.000000 H
   H6         1.0     0.035047      0.527314      0.651688     Biso  1.000000 H
   H7         1.0     0.193981      0.825600      0.681645     Biso  1.000000 H
   H8         1.0     0.139352      0.841066     -0.014978     Biso  1.000000 H
   H9         1.0     0.174400      0.368381      0.681645     Biso  1.000000 H
   H10        1.0     0.158934      0.298286     -0.014978     Biso  1.000000 H
   H11        1.0     0.631619      0.806019      0.681645     Biso  1.000000 H
   H12        1.0     0.701714      0.860648     -0.014978     Biso  1.000000 H
   H13        1.0     0.860648      0.158934      0.014978     Biso  1.000000 H
   H14        1.0     0.806019      0.174400      0.318355     Biso  1.000000 H
   H15        1.0     0.841066      0.701714      0.014978     Biso  1.000000 H
   H16        1.0     0.825600      0.631619      0.318355     Biso  1.000000 H
   H17        1.0     0.298286      0.139352      0.014978     Biso  1.000000 H
   H18        1.0     0.368381      0.193981      0.318355     Biso  1.000000 H
   Pb1        1.0     0.587980      0.650913      0.279636     Biso  1.000000 Pb
   Pb2        1.0     0.412019      0.349087      0.720364     Biso  1.000000 Pb
   Pb3        1.0     0.349087      0.937067      0.279636     Biso  1.000000 Pb
   Pb4        1.0     0.650913      0.062933      0.720364     Biso  1.000000 Pb
   Pb5        1.0     0.062933      0.412019      0.279636     Biso  1.000000 Pb
   Pb6        1.0     0.937067      0.587980      0.720364     Biso  1.000000 Pb
   Pb7        1.0     0.254647      0.984246      0.612970     Biso  1.000000 Pb
   Pb8        1.0     0.078686      0.682420      1.053697     Biso  1.000000 Pb
   Pb9        1.0     0.015754      0.270401      0.612970     Biso  1.000000 Pb
   Pb10       1.0     0.317580      0.396266      1.053697     Biso  1.000000 Pb
   Pb11       1.0     0.729599      0.745353      0.612970     Biso  1.000000 Pb
   Pb12       1.0     0.603734      0.921314      1.053697     Biso  1.000000 Pb
   Pb13       1.0     0.921314      0.317580     -0.053697     Biso  1.000000 Pb
   Pb14       1.0     0.745353      0.015754      0.387030     Biso  1.000000 Pb
   Pb15       1.0     0.682420      0.603734     -0.053697     Biso  1.000000 Pb
   Pb16       1.0     0.984246      0.729599      0.387030     Biso  1.000000 Pb
   Pb17       1.0     0.396266      0.078686     -0.053697     Biso  1.000000 Pb
   Pb18       1.0     0.270401      0.254647      0.387030     Biso  1.000000 Pb
   O1         1.0     0.443786      0.409566      0.442038     Biso  1.000000 O
   O2         1.0     0.556214      0.590434      0.557962     Biso  1.000000 O
   O3         1.0     0.590434      0.034220      0.442038     Biso  1.000000 O
   O4         1.0     0.409566      0.965780      0.557962     Biso  1.000000 O
   O5         1.0     0.965780      0.556214      0.442038     Biso  1.000000 O
   O6         1.0     0.034220      0.443786      0.557962     Biso  1.000000 O
   O7         1.0     0.110453      0.742899      0.775371     Biso  1.000000 O
   O8         1.0     0.222881      0.923767      0.891295     Biso  1.000000 O
   O9         1.0     0.257101      0.367553      0.775371     Biso  1.000000 O
   O10        1.0     0.076233      0.299113      0.891295     Biso  1.000000 O
   O11        1.0     0.632447      0.889547      0.775371     Biso  1.000000 O
   O12        1.0     0.700887      0.777119      0.891295     Biso  1.000000 O
   O13        1.0     0.777119      0.076233      0.108705     Biso  1.000000 O
   O14        1.0     0.889547      0.257101      0.224629     Biso  1.000000 O
   O15        1.0     0.923767      0.700887      0.108705     Biso  1.000000 O
   O16        1.0     0.742899      0.632447      0.224629     Biso  1.000000 O
   O17        1.0     0.299113      0.222881      0.108705     Biso  1.000000 O
   O18        1.0     0.367553      0.110453      0.224629     Biso  1.000000 O
   O19        1.0     0.376927      0.364544      0.204925     Biso  1.000000 O
   O20        1.0     0.623073      0.635456      0.795075     Biso  1.000000 O
   O21        1.0     0.635456      0.012383      0.204925     Biso  1.000000 O
   O22        1.0     0.364544      0.987617      0.795075     Biso  1.000000 O
   O23        1.0     0.987617      0.623073      0.204925     Biso  1.000000 O
   O24        1.0     0.012383      0.376927      0.795075     Biso  1.000000 O
   O25        1.0     0.043593      0.697877      0.538258     Biso  1.000000 O
   O26        1.0     0.289740      0.968790      0.128409     Biso  1.000000 O
   O27        1.0     0.302123      0.345717      0.538258     Biso  1.000000 O
   O28        1.0     0.031210      0.320950      0.128409     Biso  1.000000 O
   O29        1.0     0.654283      0.956406      0.538258     Biso  1.000000 O
   O30        1.0     0.679050      0.710260      0.128409     Biso  1.000000 O
   O31        1.0     0.710260      0.031210      0.871591     Biso  1.000000 O
   O32        1.0     0.956406      0.302123      0.461742     Biso  1.000000 O
   O33        1.0     0.968790      0.679050      0.871591     Biso  1.000000 O
   O34        1.0     0.697877      0.654283      0.461742     Biso  1.000000 O
   O35        1.0     0.320950      0.289740      0.871591     Biso  1.000000 O
   O36        1.0     0.345717      0.043593      0.461742     Biso  1.000000 O
   O37        1.0     0.605596      0.579394      0.160724     Biso  1.000000 O
   O38        1.0     0.394404      0.420606      0.839276     Biso  1.000000 O
   O39        1.0     0.420606      0.026202      0.160724     Biso  1.000000 O
   O40        1.0     0.579394      0.973798      0.839276     Biso  1.000000 O
   O41        1.0     0.973798      0.394404      0.160724     Biso  1.000000 O
   O42        1.0     0.026202      0.605596      0.839276     Biso  1.000000 O
   O43        1.0     0.272263      0.912727      0.494057     Biso  1.000000 O
   O44        1.0     0.061070      0.753939      0.172609     Biso  1.000000 O
   O45        1.0     0.087272      0.359535      0.494057     Biso  1.000000 O
   O46        1.0     0.246061      0.307131      0.172609     Biso  1.000000 O
   O47        1.0     0.640465      0.727737      0.494057     Biso  1.000000 O
   O48        1.0     0.692869      0.938929      0.172609     Biso  1.000000 O
   O49        1.0     0.938929      0.246061      0.827391     Biso  1.000000 O
   O50        1.0     0.727737      0.087272      0.505942     Biso  1.000000 O
   O51        1.0     0.753939      0.692869      0.827391     Biso  1.000000 O
   O52        1.0     0.912727      0.640465      0.505942     Biso  1.000000 O
   O53        1.0     0.307131      0.061070      0.827391     Biso  1.000000 O
   O54        1.0     0.359535      0.272263      0.505942     Biso  1.000000 O
