#======================================================================

# CRYSTAL DATA

#----------------------------------------------------------------------

data_VESTA_phase_1


_pd_phase_name                         'CPO27/MOF74 metal variation - PBEsol  '
_cell_length_a                         26.26978
_cell_length_b                         26.26978
_cell_length_c                         6.81034
_cell_angle_alpha                      90
_cell_angle_beta                       90
_cell_angle_gamma                      120
_symmetry_space_group_name_H-M         'P 1'
_symmetry_Int_Tables_number            1

loop_
_symmetry_equiv_pos_as_xyz
   'x, y, z'

loop_
   _atom_site_label
   _atom_site_occupancy
   _atom_site_fract_x
   _atom_site_fract_y
   _atom_site_fract_z
   _atom_site_adp_type
   _atom_site_B_iso_or_equiv
   _atom_site_type_symbol
   C1         1.0     0.420190      0.405129      0.258290     Biso  1.000000 C
   C2         1.0     0.579810      0.594871      0.741710     Biso  1.000000 C
   C3         1.0     0.594871      0.015061      0.258290     Biso  1.000000 C
   C4         1.0     0.405129      0.984939      0.741710     Biso  1.000000 C
   C5         1.0     0.984939      0.579810      0.258290     Biso  1.000000 C
   C6         1.0     0.015061      0.420190      0.741710     Biso  1.000000 C
   C7         1.0     0.086857      0.738463      0.591623     Biso  1.000000 C
   C8         1.0     0.246477      0.928204      0.075044     Biso  1.000000 C
   C9         1.0     0.261537      0.348394      0.591623     Biso  1.000000 C
   C10        1.0     0.071796      0.318273      0.075044     Biso  1.000000 C
   C11        1.0     0.651606      0.913143      0.591623     Biso  1.000000 C
   C12        1.0     0.681727      0.753523      0.075044     Biso  1.000000 C
   C13        1.0     0.753523      0.071796      0.924956     Biso  1.000000 C
   C14        1.0     0.913143      0.261537      0.408377     Biso  1.000000 C
   C15        1.0     0.928204      0.681727      0.924956     Biso  1.000000 C
   C16        1.0     0.738463      0.651606      0.408377     Biso  1.000000 C
   C17        1.0     0.318273      0.246477      0.924956     Biso  1.000000 C
   C18        1.0     0.348394      0.086857      0.408377     Biso  1.000000 C
   C19        1.0     0.459469      0.453564      0.120856     Biso  1.000000 C
   C20        1.0     0.540531      0.546436      0.879144     Biso  1.000000 C
   C21        1.0     0.546436      0.005905      0.120856     Biso  1.000000 C
   C22        1.0     0.453564      0.994095      0.879144     Biso  1.000000 C
   C23        1.0     0.994095      0.540531      0.120856     Biso  1.000000 C
   C24        1.0     0.005905      0.459469      0.879144     Biso  1.000000 C
   C25        1.0     0.126135      0.786897      0.454189     Biso  1.000000 C
   C26        1.0     0.207198      0.879769      0.212478     Biso  1.000000 C
   C27        1.0     0.213103      0.339238      0.454189     Biso  1.000000 C
   C28        1.0     0.120230      0.327428      0.212478     Biso  1.000000 C
   C29        1.0     0.660762      0.873865      0.454189     Biso  1.000000 C
   C30        1.0     0.672572      0.792802      0.212478     Biso  1.000000 C
   C31        1.0     0.792802      0.120230      0.787522     Biso  1.000000 C
   C32        1.0     0.873865      0.213103      0.545811     Biso  1.000000 C
   C33        1.0     0.879769      0.672572      0.787522     Biso  1.000000 C
   C34        1.0     0.786897      0.660762      0.545811     Biso  1.000000 C
   C35        1.0     0.327428      0.207198      0.787522     Biso  1.000000 C
   C36        1.0     0.339238      0.126135      0.545811     Biso  1.000000 C
   C37        1.0     0.554633      0.543347      0.078764     Biso  1.000000 C
   C38        1.0     0.445367      0.456653      0.921236     Biso  1.000000 C
   C39        1.0     0.456653      0.011286      0.078764     Biso  1.000000 C
   C40        1.0     0.543347      0.988714      0.921236     Biso  1.000000 C
   C41        1.0     0.988714      0.445367      0.078764     Biso  1.000000 C
   C42        1.0     0.011286      0.554633      0.921236     Biso  1.000000 C
   C43        1.0     0.221300      0.876680      0.412098     Biso  1.000000 C
   C44        1.0     0.112033      0.789986      0.254569     Biso  1.000000 C
   C45        1.0     0.123319      0.344619      0.412098     Biso  1.000000 C
   C46        1.0     0.210014      0.322047      0.254569     Biso  1.000000 C
   C47        1.0     0.655380      0.778700      0.412098     Biso  1.000000 C
   C48        1.0     0.677953      0.887967      0.254569     Biso  1.000000 C
   C49        1.0     0.887967      0.210014      0.745431     Biso  1.000000 C
   C50        1.0     0.778700      0.123319      0.587902     Biso  1.000000 C
   C51        1.0     0.789986      0.677953      0.745431     Biso  1.000000 C
   C52        1.0     0.876680      0.655380      0.587902     Biso  1.000000 C
   C53        1.0     0.322047      0.112033      0.745431     Biso  1.000000 C
   C54        1.0     0.344619      0.221300      0.587902     Biso  1.000000 C
   C55        1.0     0.513713      0.496878      0.193658     Biso  1.000000 C
   C56        1.0     0.486287      0.503122      0.806342     Biso  1.000000 C
   C57        1.0     0.503122      0.016835      0.193658     Biso  1.000000 C
   C58        1.0     0.496878      0.983165      0.806342     Biso  1.000000 C
   C59        1.0     0.983165      0.486287      0.193658     Biso  1.000000 C
   C60        1.0     0.016835      0.513713      0.806342     Biso  1.000000 C
   C61        1.0     0.180379      0.830211      0.526991     Biso  1.000000 C
   C62        1.0     0.152954      0.836455      0.139676     Biso  1.000000 C
   C63        1.0     0.169788      0.350168      0.526991     Biso  1.000000 C
   C64        1.0     0.163545      0.316499      0.139676     Biso  1.000000 C
   C65        1.0     0.649832      0.819620      0.526991     Biso  1.000000 C
   C66        1.0     0.683501      0.847046      0.139676     Biso  1.000000 C
   C67        1.0     0.847046      0.163545      0.860324     Biso  1.000000 C
   C68        1.0     0.819620      0.169788      0.473009     Biso  1.000000 C
   C69        1.0     0.836455      0.683501      0.860324     Biso  1.000000 C
   C70        1.0     0.830211      0.649832      0.473009     Biso  1.000000 C
   C71        1.0     0.316499      0.152954      0.860324     Biso  1.000000 C
   C72        1.0     0.350168      0.180379      0.473009     Biso  1.000000 C
   H1         1.0     0.524796      0.494209      0.346696     Biso  1.000000 H
   H2         1.0     0.475204      0.505791      0.653304     Biso  1.000000 H
   H3         1.0     0.505791      0.030587      0.346696     Biso  1.000000 H
   H4         1.0     0.494209      0.969413      0.653304     Biso  1.000000 H
   H5         1.0     0.969413      0.475204      0.346696     Biso  1.000000 H
   H6         1.0     0.030587      0.524796      0.653304     Biso  1.000000 H
   H7         1.0     0.191462      0.827542      0.680030     Biso  1.000000 H
   H8         1.0     0.141871      0.839124      0.986637     Biso  1.000000 H
   H9         1.0     0.172458      0.363920      0.680030     Biso  1.000000 H
   H10        1.0     0.160876      0.302746      0.986637     Biso  1.000000 H
   H11        1.0     0.636080      0.808538      0.680030     Biso  1.000000 H
   H12        1.0     0.697253      0.858129      0.986637     Biso  1.000000 H
   H13        1.0     0.858129      0.160876      0.013363     Biso  1.000000 H
   H14        1.0     0.808538      0.172458      0.319970     Biso  1.000000 H
   H15        1.0     0.839124      0.697253      0.013363     Biso  1.000000 H
   H16        1.0     0.827542      0.636080      0.319970     Biso  1.000000 H
   H17        1.0     0.302746      0.141871      0.013363     Biso  1.000000 H
   H18        1.0     0.363920      0.191462      0.319970     Biso  1.000000 H
   Sn1        1.0     0.588243      0.651188      0.308963     Biso  1.000000 Sn
   Sn2        1.0     0.411757      0.348812      0.691037     Biso  1.000000 Sn
   Sn3        1.0     0.348812      0.937055      0.308963     Biso  1.000000 Sn
   Sn4        1.0     0.651188      0.062945      0.691037     Biso  1.000000 Sn
   Sn5        1.0     0.062945      0.411757      0.308963     Biso  1.000000 Sn
   Sn6        1.0     0.937055      0.588243      0.691037     Biso  1.000000 Sn
   Sn7        1.0     0.254910      0.984522      0.642296     Biso  1.000000 Sn
   Sn8        1.0     0.078423      0.682145      0.024370     Biso  1.000000 Sn
   Sn9        1.0     0.015478      0.270388      0.642296     Biso  1.000000 Sn
   Sn10       1.0     0.317855      0.396279      0.024370     Biso  1.000000 Sn
   Sn11       1.0     0.729612      0.745090      0.642296     Biso  1.000000 Sn
   Sn12       1.0     0.603721      0.921576      0.024370     Biso  1.000000 Sn
   Sn13       1.0     0.921576      0.317855      0.975630     Biso  1.000000 Sn
   Sn14       1.0     0.745090      0.015478      0.357704     Biso  1.000000 Sn
   Sn15       1.0     0.682145      0.603721      0.975630     Biso  1.000000 Sn
   Sn16       1.0     0.984522      0.729612      0.357704     Biso  1.000000 Sn
   Sn17       1.0     0.396279      0.078423      0.975630     Biso  1.000000 Sn
   Sn18       1.0     0.270388      0.254910      0.357704     Biso  1.000000 Sn
   O1         1.0     0.438817      0.408195      0.433098     Biso  1.000000 O
   O2         1.0     0.561183      0.591805      0.566902     Biso  1.000000 O
   O3         1.0     0.591805      0.030622      0.433098     Biso  1.000000 O
   O4         1.0     0.408195      0.969377      0.566902     Biso  1.000000 O
   O5         1.0     0.969377      0.561183      0.433098     Biso  1.000000 O
   O6         1.0     0.030622      0.438817      0.566902     Biso  1.000000 O
   O7         1.0     0.105484      0.741528      0.766432     Biso  1.000000 O
   O8         1.0     0.227849      0.925139      0.900235     Biso  1.000000 O
   O9         1.0     0.258472      0.363956      0.766432     Biso  1.000000 O
   O10        1.0     0.074861      0.302711      0.900235     Biso  1.000000 O
   O11        1.0     0.636044      0.894516      0.766432     Biso  1.000000 O
   O12        1.0     0.697289      0.772150      0.900235     Biso  1.000000 O
   O13        1.0     0.772150      0.074861      0.099765     Biso  1.000000 O
   O14        1.0     0.894516      0.258472      0.233568     Biso  1.000000 O
   O15        1.0     0.925139      0.697289      0.099765     Biso  1.000000 O
   O16        1.0     0.741528      0.636044      0.233568     Biso  1.000000 O
   O17        1.0     0.302711      0.227849      0.099765     Biso  1.000000 O
   O18        1.0     0.363956      0.105484      0.233568     Biso  1.000000 O
   O19        1.0     0.370641      0.363915      0.199258     Biso  1.000000 O
   O20        1.0     0.629359      0.636085      0.800742     Biso  1.000000 O
   O21        1.0     0.636085      0.006726      0.199258     Biso  1.000000 O
   O22        1.0     0.363915      0.993274      0.800742     Biso  1.000000 O
   O23        1.0     0.993274      0.629359      0.199258     Biso  1.000000 O
   O24        1.0     0.006726      0.370641      0.800742     Biso  1.000000 O
   O25        1.0     0.037308      0.697248      0.532591     Biso  1.000000 O
   O26        1.0     0.296026      0.969418      0.134076     Biso  1.000000 O
   O27        1.0     0.302752      0.340059      0.532591     Biso  1.000000 O
   O28        1.0     0.030582      0.326607      0.134076     Biso  1.000000 O
   O29        1.0     0.659941      0.962692      0.532591     Biso  1.000000 O
   O30        1.0     0.673393      0.703974      0.134076     Biso  1.000000 O
   O31        1.0     0.703974      0.030582      0.865924     Biso  1.000000 O
   O32        1.0     0.962692      0.302752      0.467409     Biso  1.000000 O
   O33        1.0     0.969418      0.673393      0.865924     Biso  1.000000 O
   O34        1.0     0.697248      0.659941      0.467409     Biso  1.000000 O
   O35        1.0     0.326607      0.296026      0.865924     Biso  1.000000 O
   O36        1.0     0.340059      0.037308      0.467409     Biso  1.000000 O
   O37        1.0     0.605882      0.584068      0.166458     Biso  1.000000 O
   O38        1.0     0.394118      0.415932      0.833542     Biso  1.000000 O
   O39        1.0     0.415932      0.021815      0.166458     Biso  1.000000 O
   O40        1.0     0.584068      0.978185      0.833542     Biso  1.000000 O
   O41        1.0     0.978185      0.394118      0.166458     Biso  1.000000 O
   O42        1.0     0.021815      0.605882      0.833542     Biso  1.000000 O
   O43        1.0     0.272549      0.917401      0.499791     Biso  1.000000 O
   O44        1.0     0.060784      0.749266      0.166876     Biso  1.000000 O
   O45        1.0     0.082599      0.355148      0.499791     Biso  1.000000 O
   O46        1.0     0.250734      0.311519      0.166876     Biso  1.000000 O
   O47        1.0     0.644852      0.727451      0.499791     Biso  1.000000 O
   O48        1.0     0.688481      0.939215      0.166876     Biso  1.000000 O
   O49        1.0     0.939215      0.250734      0.833124     Biso  1.000000 O
   O50        1.0     0.727451      0.082599      0.500209     Biso  1.000000 O
   O51        1.0     0.749266      0.688481      0.833124     Biso  1.000000 O
   O52        1.0     0.917401      0.644852      0.500209     Biso  1.000000 O
   O53        1.0     0.311519      0.060784      0.833124     Biso  1.000000 O
   O54        1.0     0.355148      0.272549      0.500209     Biso  1.000000 O
